                                   MODFLOW 6
                U.S. GEOLOGICAL SURVEY MODULAR HYDROLOGIC MODEL
                          GROUNDWATER FLOW MODEL (GWF)
                            VERSION 6.2.1 02/18/2021

  MODFLOW 6 compiled May  6 2021 00:38:39 with GFORTRAN compiler (ver. 10.2.0)

This software has been approved for release by the U.S. Geological 
Survey (USGS). Although the software has been subjected to rigorous 
review, the USGS reserves the right to update the software as needed 
pursuant to further analysis and review. No warranty, expressed or 
implied, is made by the USGS or the U.S. Government as to the 
functionality of the software and related material nor shall the 
fact of release constitute any such warranty. Furthermore, the 
software is released on condition that neither the USGS nor the U.S. 
Government shall be held liable for any damages resulting from its 
authorized or unauthorized use. Also refer to the USGS Water 
Resources Software User Rights Notice for complete use, copyright, 
and distribution information.


System command used to initiate simulation:
/Users/Theo/GRWMODELS/mfLab/trunk/bin/mf6.mac

MODFLOW was compiled using uniform precision.

Real Variables
  KIND: 8
  TINY (smallest non-zero value):    2.225074-308
  HUGE (largest value):    1.797693+308
  PRECISION: 15
  BIT SIZE: 64

Integer Variables
  KIND: 4
  HUGE (largest value): 2147483647
  BIT SIZE: 32

Long Integer Variables
  KIND: 8
  HUGE (largest value): 9223372036854775807
  BIT SIZE: 64

Logical Variables
  KIND: 4
  BIT SIZE: 32


 OPENED tutorial01b.dis
 FILE TYPE:DIS6                   UNIT 1005   STATUS:OLD                 
 FORMAT:FORMATTED              ACCESS:SEQUENTIAL          
 ACTION:READ                


 OPENED tutorial01b.sto
 FILE TYPE:STO6                   UNIT 1006   STATUS:OLD                 
 FORMAT:FORMATTED              ACCESS:SEQUENTIAL          
 ACTION:READ                


 OPENED tutorial01b.ic
 FILE TYPE:IC6                    UNIT 1007   STATUS:OLD                 
 FORMAT:FORMATTED              ACCESS:SEQUENTIAL          
 ACTION:READ                


 OPENED tutorial01b.npf
 FILE TYPE:NPF6                   UNIT 1008   STATUS:OLD                 
 FORMAT:FORMATTED              ACCESS:SEQUENTIAL          
 ACTION:READ                


 OPENED tutorial01b.chd
 FILE TYPE:CHD6                   UNIT 1009   STATUS:OLD                 
 FORMAT:FORMATTED              ACCESS:SEQUENTIAL          
 ACTION:READ                


 OPENED tutorial01b.wel
 FILE TYPE:WEL6                   UNIT 1010   STATUS:OLD                 
 FORMAT:FORMATTED              ACCESS:SEQUENTIAL          
 ACTION:READ                


 OPENED tutorial01b.rcha
 FILE TYPE:RCH6                   UNIT 1011   STATUS:OLD                 
 FORMAT:FORMATTED              ACCESS:SEQUENTIAL          
 ACTION:READ                


 OPENED tutorial01b.oc
 FILE TYPE:OC6                    UNIT 1012   STATUS:OLD                 
 FORMAT:FORMATTED              ACCESS:SEQUENTIAL          
 ACTION:READ                


 DIS -- STRUCTURED GRID DISCRETIZATION PACKAGE, VERSION 2 : 3/27/2014 - INPUT READ FROM UNIT 1005


 # File generated by Flopy version 3.3.3 on 05/23/2021 at 20:08:28.
 PROCESSING DISCRETIZATION OPTIONS
 END OF DISCRETIZATION OPTIONS
 MODEL LENGTH UNIT IS UNDEFINED
 PROCESSING DISCRETIZATION DIMENSIONS
    NLAY =       1
    NROW =     100
    NCOL =     100
 END OF DISCRETIZATION DIMENSIONS
 PROCESSING GRIDDATA

 TOP ELEVATION OF LAYER 1 =   0.000000    

   MODEL LAYER BOTTOM EL. =  -50.00000    
 END PROCESSING GRIDDATA

 NPF -- NODE PROPERTY FLOW PACKAGE, VERSION 1, 3/30/2015 INPUT READ FROM UNIT 1008


 # File generated by Flopy version 3.3.3 on 05/23/2021 at 20:08:28.
 PROCESSING NPF OPTIONS
    CELL-BY-CELL FLOW INFORMATION WILL BE SAVED TO BINARY FILE WHENEVER ICBCFL IS NOT ZERO.
 END OF NPF OPTIONS

 WEL   -- WEL PACKAGE, VERSION 8, 2/22/2014 INPUT READ FROM UNIT 1010
 # File generated by Flopy version 3.3.3 on 05/23/2021 at 20:08:28.

 PROCESSING WEL OPTIONS
    FLOWS WILL BE SAVED TO BUDGET FILE SPECIFIED IN OUTPUT CONTROL
    TIME-SERIES DATA WILL BE READ FROM FILE: Q_well.ts
 # File generated by Flopy version 3.3.3 on 05/23/2021 at 20:08:28.
 END OF WEL OPTIONS

 PROCESSING WEL DIMENSIONS
    MAXBOUND =       1
 END OF WEL DIMENSIONS

 RCH   -- RCH PACKAGE, VERSION 8, 2/22/2014 INPUT READ FROM UNIT 1011
 # File generated by Flopy version 3.3.3 on 05/23/2021 at 20:08:28.

 PROCESSING RCH OPTIONS
    RECHARGE INPUT WILL BE READ AS ARRAY(S).
    FLOWS WILL BE SAVED TO BUDGET FILE SPECIFIED IN OUTPUT CONTROL
    TIME-ARRAY SERIES DATA WILL BE READ FROM FILE: KNMI_Rotterdam.tas
 END OF RCH OPTIONS
 # File generated by Flopy version 3.3.3 on 05/23/2021 at 20:08:28.

 KNMI_ROTTERDAM =  0.2000000E-02

 CHD   -- CHD PACKAGE, VERSION 8, 2/22/2014 INPUT READ FROM UNIT 1009
 # File generated by Flopy version 3.3.3 on 05/23/2021 at 20:08:28.

 PROCESSING CHD OPTIONS
    FLOWS WILL BE SAVED TO BUDGET FILE SPECIFIED IN OUTPUT CONTROL
 END OF CHD OPTIONS

 PROCESSING CHD DIMENSIONS
    MAXBOUND =     396
 END OF CHD DIMENSIONS

 IC -- INITIAL CONDITIONS PACKAGE, VERSION 8, 3/28/2015 INPUT READ FROM UNIT 1007
 # File generated by Flopy version 3.3.3 on 05/23/2021 at 20:08:28.
 PROCESSING GRIDDATA
 END PROCESSING GRIDDATA
 PROCESSING GRIDDATA

                ICELLTYPE = 1

                        K =   600.0000    
 K33 not provided.  Assuming K33 = K.
 K22 not provided.  Assuming K22 = K.
 END PROCESSING GRIDDATA

 STO -- STORAGE PACKAGE, VERSION 1, 5/19/2014 INPUT READ FROM UNIT 1006


 # File generated by Flopy version 3.3.3 on 05/23/2021 at 20:08:28.
 PROCESSING STORAGE OPTIONS
    CELL-BY-CELL FLOW INFORMATION WILL BE SAVED TO BINARY FILE WHENEVER ICBCFL IS NOT ZERO.
    STORAGECOEFFICIENT OPTION:
 Read storage coefficient rather than specific storage
 END OF STORAGE OPTIONS
 PROCESSING GRIDDATA

                 ICONVERT = 1

         SPECIFIC STORAGE =  0.1000000E-04

           SPECIFIC YIELD =  0.1500000    
 END PROCESSING GRIDDATA
    BINARY GRID INFORMATION WILL BE WRITTEN TO:
      UNIT NUMBER: 1016
      FILE NAME: tutorial01b.dis.grb

 OPENED tutorial01b.dis.grb
 FILE TYPE:DATA(BINARY)   UNIT 1016   STATUS:REPLACE             
 FORMAT:UNFORMATTED            ACCESS:STREAM              
 ACTION:READWRITE           

      THE LAST TIME STEP WILL BE PRINTED
      THE LAST TIME STEP WILL BE PRINTED
 # File generated by Flopy version 3.3.3 on 05/23/2021 at 20:08:28.

 PROCESSING OC OPTIONS

    BUDGET INFORMATION WILL BE WRITTEN TO:
      UNIT NUMBER: 1017
      FILE NAME: tutorial01b.cbb

 OPENED tutorial01b.cbb
 FILE TYPE:DATA(BINARY)   UNIT 1017   STATUS:REPLACE             
 FORMAT:UNFORMATTED            ACCESS:STREAM              
 ACTION:READWRITE           

    HEAD INFORMATION WILL BE WRITTEN TO:
      UNIT NUMBER: 1018
      FILE NAME: tutorial01b.hds

 OPENED tutorial01b.hds
 FILE TYPE:DATA(BINARY)   UNIT 1018   STATUS:REPLACE             
 FORMAT:UNFORMATTED            ACCESS:STREAM              
 ACTION:READWRITE           

 END OF OC OPTIONS

start timestep kper="1" kstp="1" mode="normal"


 BEGIN READING OUTPUT CONTROL FOR STRESS PERIOD 1
      ALL TIME STEPS WILL BE SAVED
      ALL TIME STEPS WILL BE SAVED
      THE LAST TIME STEP WILL BE PRINTED

 END READING OUTPUT CONTROL FOR STRESS PERIOD 1


 PROCESSING STORAGE PERIOD DATA
 END PROCESSING STORAGE PERIOD DATA


 STRESS PERIOD 1 IS TRANSIENT


 KNMI_ROTTERDAM = -0.2000000E-02

 UBDSV1 SAVING           STO-SS ON UNIT   1017 AT TIME STEP      1, STRESS PERIOD      1
 UBDSV1 SAVING           STO-SY ON UNIT   1017 AT TIME STEP      1, STRESS PERIOD      1
 UBDSV1 SAVING     FLOW-JA-FACE ON UNIT   1017 AT TIME STEP      1, STRESS PERIOD      1
 UBDSV06 SAVING              WEL IN MODEL TUTORIAL01B      PACKAGE TUTORIAL01B     CONNECTED TO MODEL TUTORIAL01B      PACKAGE WEL_0            ON UNIT   1017 AT TIME STEP      1, STRESS PERIOD      1
 UBDSV06 SAVING              RCH IN MODEL TUTORIAL01B      PACKAGE TUTORIAL01B     CONNECTED TO MODEL TUTORIAL01B      PACKAGE RCHA             ON UNIT   1017 AT TIME STEP      1, STRESS PERIOD      1
 UBDSV06 SAVING              CHD IN MODEL TUTORIAL01B      PACKAGE TUTORIAL01B     CONNECTED TO MODEL TUTORIAL01B      PACKAGE CHD_0            ON UNIT   1017 AT TIME STEP      1, STRESS PERIOD      1

 HEAD WILL BE SAVED ON UNIT 1018 AT END OF TIME STEP    1, STRESS PERIOD    1

end timestep


start timestep kper="1" kstp="2" mode="normal"


 UBDSV1 SAVING           STO-SS ON UNIT   1017 AT TIME STEP      2, STRESS PERIOD      1
 UBDSV1 SAVING           STO-SY ON UNIT   1017 AT TIME STEP      2, STRESS PERIOD      1
 UBDSV1 SAVING     FLOW-JA-FACE ON UNIT   1017 AT TIME STEP      2, STRESS PERIOD      1
 UBDSV06 SAVING              WEL IN MODEL TUTORIAL01B      PACKAGE TUTORIAL01B     CONNECTED TO MODEL TUTORIAL01B      PACKAGE WEL_0            ON UNIT   1017 AT TIME STEP      2, STRESS PERIOD      1
 UBDSV06 SAVING              RCH IN MODEL TUTORIAL01B      PACKAGE TUTORIAL01B     CONNECTED TO MODEL TUTORIAL01B      PACKAGE RCHA             ON UNIT   1017 AT TIME STEP      2, STRESS PERIOD      1
 UBDSV06 SAVING              CHD IN MODEL TUTORIAL01B      PACKAGE TUTORIAL01B     CONNECTED TO MODEL TUTORIAL01B      PACKAGE CHD_0            ON UNIT   1017 AT TIME STEP      2, STRESS PERIOD      1

 HEAD WILL BE SAVED ON UNIT 1018 AT END OF TIME STEP    2, STRESS PERIOD    1

end timestep


start timestep kper="1" kstp="3" mode="normal"


 UBDSV1 SAVING           STO-SS ON UNIT   1017 AT TIME STEP      3, STRESS PERIOD      1
 UBDSV1 SAVING           STO-SY ON UNIT   1017 AT TIME STEP      3, STRESS PERIOD      1
 UBDSV1 SAVING     FLOW-JA-FACE ON UNIT   1017 AT TIME STEP      3, STRESS PERIOD      1
 UBDSV06 SAVING              WEL IN MODEL TUTORIAL01B      PACKAGE TUTORIAL01B     CONNECTED TO MODEL TUTORIAL01B      PACKAGE WEL_0            ON UNIT   1017 AT TIME STEP      3, STRESS PERIOD      1
 UBDSV06 SAVING              RCH IN MODEL TUTORIAL01B      PACKAGE TUTORIAL01B     CONNECTED TO MODEL TUTORIAL01B      PACKAGE RCHA             ON UNIT   1017 AT TIME STEP      3, STRESS PERIOD      1
 UBDSV06 SAVING              CHD IN MODEL TUTORIAL01B      PACKAGE TUTORIAL01B     CONNECTED TO MODEL TUTORIAL01B      PACKAGE CHD_0            ON UNIT   1017 AT TIME STEP      3, STRESS PERIOD      1

 HEAD WILL BE SAVED ON UNIT 1018 AT END OF TIME STEP    3, STRESS PERIOD    1

end timestep


start timestep kper="1" kstp="4" mode="normal"


 UBDSV1 SAVING           STO-SS ON UNIT   1017 AT TIME STEP      4, STRESS PERIOD      1
 UBDSV1 SAVING           STO-SY ON UNIT   1017 AT TIME STEP      4, STRESS PERIOD      1
 UBDSV1 SAVING     FLOW-JA-FACE ON UNIT   1017 AT TIME STEP      4, STRESS PERIOD      1
 UBDSV06 SAVING              WEL IN MODEL TUTORIAL01B      PACKAGE TUTORIAL01B     CONNECTED TO MODEL TUTORIAL01B      PACKAGE WEL_0            ON UNIT   1017 AT TIME STEP      4, STRESS PERIOD      1
 UBDSV06 SAVING              RCH IN MODEL TUTORIAL01B      PACKAGE TUTORIAL01B     CONNECTED TO MODEL TUTORIAL01B      PACKAGE RCHA             ON UNIT   1017 AT TIME STEP      4, STRESS PERIOD      1
 UBDSV06 SAVING              CHD IN MODEL TUTORIAL01B      PACKAGE TUTORIAL01B     CONNECTED TO MODEL TUTORIAL01B      PACKAGE CHD_0            ON UNIT   1017 AT TIME STEP      4, STRESS PERIOD      1

 HEAD WILL BE SAVED ON UNIT 1018 AT END OF TIME STEP    4, STRESS PERIOD    1

end timestep


start timestep kper="1" kstp="5" mode="normal"


 UBDSV1 SAVING           STO-SS ON UNIT   1017 AT TIME STEP      5, STRESS PERIOD      1
 UBDSV1 SAVING           STO-SY ON UNIT   1017 AT TIME STEP      5, STRESS PERIOD      1
 UBDSV1 SAVING     FLOW-JA-FACE ON UNIT   1017 AT TIME STEP      5, STRESS PERIOD      1
 UBDSV06 SAVING              WEL IN MODEL TUTORIAL01B      PACKAGE TUTORIAL01B     CONNECTED TO MODEL TUTORIAL01B      PACKAGE WEL_0            ON UNIT   1017 AT TIME STEP      5, STRESS PERIOD      1
 UBDSV06 SAVING              RCH IN MODEL TUTORIAL01B      PACKAGE TUTORIAL01B     CONNECTED TO MODEL TUTORIAL01B      PACKAGE RCHA             ON UNIT   1017 AT TIME STEP      5, STRESS PERIOD      1
 UBDSV06 SAVING              CHD IN MODEL TUTORIAL01B      PACKAGE TUTORIAL01B     CONNECTED TO MODEL TUTORIAL01B      PACKAGE CHD_0            ON UNIT   1017 AT TIME STEP      5, STRESS PERIOD      1

 HEAD WILL BE SAVED ON UNIT 1018 AT END OF TIME STEP    5, STRESS PERIOD    1

end timestep


start timestep kper="1" kstp="6" mode="normal"


 KNMI_ROTTERDAM =  0.4000000E-01

 UBDSV1 SAVING           STO-SS ON UNIT   1017 AT TIME STEP      6, STRESS PERIOD      1
 UBDSV1 SAVING           STO-SY ON UNIT   1017 AT TIME STEP      6, STRESS PERIOD      1
 UBDSV1 SAVING     FLOW-JA-FACE ON UNIT   1017 AT TIME STEP      6, STRESS PERIOD      1
 UBDSV06 SAVING              WEL IN MODEL TUTORIAL01B      PACKAGE TUTORIAL01B     CONNECTED TO MODEL TUTORIAL01B      PACKAGE WEL_0            ON UNIT   1017 AT TIME STEP      6, STRESS PERIOD      1
 UBDSV06 SAVING              RCH IN MODEL TUTORIAL01B      PACKAGE TUTORIAL01B     CONNECTED TO MODEL TUTORIAL01B      PACKAGE RCHA             ON UNIT   1017 AT TIME STEP      6, STRESS PERIOD      1
 UBDSV06 SAVING              CHD IN MODEL TUTORIAL01B      PACKAGE TUTORIAL01B     CONNECTED TO MODEL TUTORIAL01B      PACKAGE CHD_0            ON UNIT   1017 AT TIME STEP      6, STRESS PERIOD      1

 HEAD WILL BE SAVED ON UNIT 1018 AT END OF TIME STEP    6, STRESS PERIOD    1

end timestep


start timestep kper="1" kstp="7" mode="normal"


 UBDSV1 SAVING           STO-SS ON UNIT   1017 AT TIME STEP      7, STRESS PERIOD      1
 UBDSV1 SAVING           STO-SY ON UNIT   1017 AT TIME STEP      7, STRESS PERIOD      1
 UBDSV1 SAVING     FLOW-JA-FACE ON UNIT   1017 AT TIME STEP      7, STRESS PERIOD      1
 UBDSV06 SAVING              WEL IN MODEL TUTORIAL01B      PACKAGE TUTORIAL01B     CONNECTED TO MODEL TUTORIAL01B      PACKAGE WEL_0            ON UNIT   1017 AT TIME STEP      7, STRESS PERIOD      1
 UBDSV06 SAVING              RCH IN MODEL TUTORIAL01B      PACKAGE TUTORIAL01B     CONNECTED TO MODEL TUTORIAL01B      PACKAGE RCHA             ON UNIT   1017 AT TIME STEP      7, STRESS PERIOD      1
 UBDSV06 SAVING              CHD IN MODEL TUTORIAL01B      PACKAGE TUTORIAL01B     CONNECTED TO MODEL TUTORIAL01B      PACKAGE CHD_0            ON UNIT   1017 AT TIME STEP      7, STRESS PERIOD      1

 HEAD WILL BE SAVED ON UNIT 1018 AT END OF TIME STEP    7, STRESS PERIOD    1

end timestep


start timestep kper="1" kstp="8" mode="normal"


 UBDSV1 SAVING           STO-SS ON UNIT   1017 AT TIME STEP      8, STRESS PERIOD      1
 UBDSV1 SAVING           STO-SY ON UNIT   1017 AT TIME STEP      8, STRESS PERIOD      1
 UBDSV1 SAVING     FLOW-JA-FACE ON UNIT   1017 AT TIME STEP      8, STRESS PERIOD      1
 UBDSV06 SAVING              WEL IN MODEL TUTORIAL01B      PACKAGE TUTORIAL01B     CONNECTED TO MODEL TUTORIAL01B      PACKAGE WEL_0            ON UNIT   1017 AT TIME STEP      8, STRESS PERIOD      1
 UBDSV06 SAVING              RCH IN MODEL TUTORIAL01B      PACKAGE TUTORIAL01B     CONNECTED TO MODEL TUTORIAL01B      PACKAGE RCHA             ON UNIT   1017 AT TIME STEP      8, STRESS PERIOD      1
 UBDSV06 SAVING              CHD IN MODEL TUTORIAL01B      PACKAGE TUTORIAL01B     CONNECTED TO MODEL TUTORIAL01B      PACKAGE CHD_0            ON UNIT   1017 AT TIME STEP      8, STRESS PERIOD      1

 HEAD WILL BE SAVED ON UNIT 1018 AT END OF TIME STEP    8, STRESS PERIOD    1

end timestep


start timestep kper="1" kstp="9" mode="normal"


 UBDSV1 SAVING           STO-SS ON UNIT   1017 AT TIME STEP      9, STRESS PERIOD      1
 UBDSV1 SAVING           STO-SY ON UNIT   1017 AT TIME STEP      9, STRESS PERIOD      1
 UBDSV1 SAVING     FLOW-JA-FACE ON UNIT   1017 AT TIME STEP      9, STRESS PERIOD      1
 UBDSV06 SAVING              WEL IN MODEL TUTORIAL01B      PACKAGE TUTORIAL01B     CONNECTED TO MODEL TUTORIAL01B      PACKAGE WEL_0            ON UNIT   1017 AT TIME STEP      9, STRESS PERIOD      1
 UBDSV06 SAVING              RCH IN MODEL TUTORIAL01B      PACKAGE TUTORIAL01B     CONNECTED TO MODEL TUTORIAL01B      PACKAGE RCHA             ON UNIT   1017 AT TIME STEP      9, STRESS PERIOD      1
 UBDSV06 SAVING              CHD IN MODEL TUTORIAL01B      PACKAGE TUTORIAL01B     CONNECTED TO MODEL TUTORIAL01B      PACKAGE CHD_0            ON UNIT   1017 AT TIME STEP      9, STRESS PERIOD      1

 HEAD WILL BE SAVED ON UNIT 1018 AT END OF TIME STEP    9, STRESS PERIOD    1

end timestep


start timestep kper="1" kstp="10" mode="normal"


 UBDSV1 SAVING           STO-SS ON UNIT   1017 AT TIME STEP     10, STRESS PERIOD      1
 UBDSV1 SAVING           STO-SY ON UNIT   1017 AT TIME STEP     10, STRESS PERIOD      1
 UBDSV1 SAVING     FLOW-JA-FACE ON UNIT   1017 AT TIME STEP     10, STRESS PERIOD      1
 UBDSV06 SAVING              WEL IN MODEL TUTORIAL01B      PACKAGE TUTORIAL01B     CONNECTED TO MODEL TUTORIAL01B      PACKAGE WEL_0            ON UNIT   1017 AT TIME STEP     10, STRESS PERIOD      1
 UBDSV06 SAVING              RCH IN MODEL TUTORIAL01B      PACKAGE TUTORIAL01B     CONNECTED TO MODEL TUTORIAL01B      PACKAGE RCHA             ON UNIT   1017 AT TIME STEP     10, STRESS PERIOD      1
 UBDSV06 SAVING              CHD IN MODEL TUTORIAL01B      PACKAGE TUTORIAL01B     CONNECTED TO MODEL TUTORIAL01B      PACKAGE CHD_0            ON UNIT   1017 AT TIME STEP     10, STRESS PERIOD      1

 HEAD WILL BE SAVED ON UNIT 1018 AT END OF TIME STEP   10, STRESS PERIOD    1

end timestep


start timestep kper="1" kstp="11" mode="normal"


 KNMI_ROTTERDAM =  0.1000000E-02

 UBDSV1 SAVING           STO-SS ON UNIT   1017 AT TIME STEP     11, STRESS PERIOD      1
 UBDSV1 SAVING           STO-SY ON UNIT   1017 AT TIME STEP     11, STRESS PERIOD      1
 UBDSV1 SAVING     FLOW-JA-FACE ON UNIT   1017 AT TIME STEP     11, STRESS PERIOD      1
 UBDSV06 SAVING              WEL IN MODEL TUTORIAL01B      PACKAGE TUTORIAL01B     CONNECTED TO MODEL TUTORIAL01B      PACKAGE WEL_0            ON UNIT   1017 AT TIME STEP     11, STRESS PERIOD      1
 UBDSV06 SAVING              RCH IN MODEL TUTORIAL01B      PACKAGE TUTORIAL01B     CONNECTED TO MODEL TUTORIAL01B      PACKAGE RCHA             ON UNIT   1017 AT TIME STEP     11, STRESS PERIOD      1
 UBDSV06 SAVING              CHD IN MODEL TUTORIAL01B      PACKAGE TUTORIAL01B     CONNECTED TO MODEL TUTORIAL01B      PACKAGE CHD_0            ON UNIT   1017 AT TIME STEP     11, STRESS PERIOD      1

 HEAD WILL BE SAVED ON UNIT 1018 AT END OF TIME STEP   11, STRESS PERIOD    1

end timestep


start timestep kper="1" kstp="12" mode="normal"


 UBDSV1 SAVING           STO-SS ON UNIT   1017 AT TIME STEP     12, STRESS PERIOD      1
 UBDSV1 SAVING           STO-SY ON UNIT   1017 AT TIME STEP     12, STRESS PERIOD      1
 UBDSV1 SAVING     FLOW-JA-FACE ON UNIT   1017 AT TIME STEP     12, STRESS PERIOD      1
 UBDSV06 SAVING              WEL IN MODEL TUTORIAL01B      PACKAGE TUTORIAL01B     CONNECTED TO MODEL TUTORIAL01B      PACKAGE WEL_0            ON UNIT   1017 AT TIME STEP     12, STRESS PERIOD      1
 UBDSV06 SAVING              RCH IN MODEL TUTORIAL01B      PACKAGE TUTORIAL01B     CONNECTED TO MODEL TUTORIAL01B      PACKAGE RCHA             ON UNIT   1017 AT TIME STEP     12, STRESS PERIOD      1
 UBDSV06 SAVING              CHD IN MODEL TUTORIAL01B      PACKAGE TUTORIAL01B     CONNECTED TO MODEL TUTORIAL01B      PACKAGE CHD_0            ON UNIT   1017 AT TIME STEP     12, STRESS PERIOD      1

 HEAD WILL BE SAVED ON UNIT 1018 AT END OF TIME STEP   12, STRESS PERIOD    1

end timestep


start timestep kper="1" kstp="13" mode="normal"


 UBDSV1 SAVING           STO-SS ON UNIT   1017 AT TIME STEP     13, STRESS PERIOD      1
 UBDSV1 SAVING           STO-SY ON UNIT   1017 AT TIME STEP     13, STRESS PERIOD      1
 UBDSV1 SAVING     FLOW-JA-FACE ON UNIT   1017 AT TIME STEP     13, STRESS PERIOD      1
 UBDSV06 SAVING              WEL IN MODEL TUTORIAL01B      PACKAGE TUTORIAL01B     CONNECTED TO MODEL TUTORIAL01B      PACKAGE WEL_0            ON UNIT   1017 AT TIME STEP     13, STRESS PERIOD      1
 UBDSV06 SAVING              RCH IN MODEL TUTORIAL01B      PACKAGE TUTORIAL01B     CONNECTED TO MODEL TUTORIAL01B      PACKAGE RCHA             ON UNIT   1017 AT TIME STEP     13, STRESS PERIOD      1
 UBDSV06 SAVING              CHD IN MODEL TUTORIAL01B      PACKAGE TUTORIAL01B     CONNECTED TO MODEL TUTORIAL01B      PACKAGE CHD_0            ON UNIT   1017 AT TIME STEP     13, STRESS PERIOD      1

 HEAD WILL BE SAVED ON UNIT 1018 AT END OF TIME STEP   13, STRESS PERIOD    1

end timestep


start timestep kper="1" kstp="14" mode="normal"


 UBDSV1 SAVING           STO-SS ON UNIT   1017 AT TIME STEP     14, STRESS PERIOD      1
 UBDSV1 SAVING           STO-SY ON UNIT   1017 AT TIME STEP     14, STRESS PERIOD      1
 UBDSV1 SAVING     FLOW-JA-FACE ON UNIT   1017 AT TIME STEP     14, STRESS PERIOD      1
 UBDSV06 SAVING              WEL IN MODEL TUTORIAL01B      PACKAGE TUTORIAL01B     CONNECTED TO MODEL TUTORIAL01B      PACKAGE WEL_0            ON UNIT   1017 AT TIME STEP     14, STRESS PERIOD      1
 UBDSV06 SAVING              RCH IN MODEL TUTORIAL01B      PACKAGE TUTORIAL01B     CONNECTED TO MODEL TUTORIAL01B      PACKAGE RCHA             ON UNIT   1017 AT TIME STEP     14, STRESS PERIOD      1
 UBDSV06 SAVING              CHD IN MODEL TUTORIAL01B      PACKAGE TUTORIAL01B     CONNECTED TO MODEL TUTORIAL01B      PACKAGE CHD_0            ON UNIT   1017 AT TIME STEP     14, STRESS PERIOD      1

 HEAD WILL BE SAVED ON UNIT 1018 AT END OF TIME STEP   14, STRESS PERIOD    1

end timestep


start timestep kper="1" kstp="15" mode="normal"


 KNMI_ROTTERDAM =   0.000000    

 UBDSV1 SAVING           STO-SS ON UNIT   1017 AT TIME STEP     15, STRESS PERIOD      1
 UBDSV1 SAVING           STO-SY ON UNIT   1017 AT TIME STEP     15, STRESS PERIOD      1
 UBDSV1 SAVING     FLOW-JA-FACE ON UNIT   1017 AT TIME STEP     15, STRESS PERIOD      1
 UBDSV06 SAVING              WEL IN MODEL TUTORIAL01B      PACKAGE TUTORIAL01B     CONNECTED TO MODEL TUTORIAL01B      PACKAGE WEL_0            ON UNIT   1017 AT TIME STEP     15, STRESS PERIOD      1
 UBDSV06 SAVING              RCH IN MODEL TUTORIAL01B      PACKAGE TUTORIAL01B     CONNECTED TO MODEL TUTORIAL01B      PACKAGE RCHA             ON UNIT   1017 AT TIME STEP     15, STRESS PERIOD      1
 UBDSV06 SAVING              CHD IN MODEL TUTORIAL01B      PACKAGE TUTORIAL01B     CONNECTED TO MODEL TUTORIAL01B      PACKAGE CHD_0            ON UNIT   1017 AT TIME STEP     15, STRESS PERIOD      1

 HEAD WILL BE SAVED ON UNIT 1018 AT END OF TIME STEP   15, STRESS PERIOD    1

end timestep


start timestep kper="1" kstp="16" mode="normal"


 UBDSV1 SAVING           STO-SS ON UNIT   1017 AT TIME STEP     16, STRESS PERIOD      1
 UBDSV1 SAVING           STO-SY ON UNIT   1017 AT TIME STEP     16, STRESS PERIOD      1
 UBDSV1 SAVING     FLOW-JA-FACE ON UNIT   1017 AT TIME STEP     16, STRESS PERIOD      1
 UBDSV06 SAVING              WEL IN MODEL TUTORIAL01B      PACKAGE TUTORIAL01B     CONNECTED TO MODEL TUTORIAL01B      PACKAGE WEL_0            ON UNIT   1017 AT TIME STEP     16, STRESS PERIOD      1
 UBDSV06 SAVING              RCH IN MODEL TUTORIAL01B      PACKAGE TUTORIAL01B     CONNECTED TO MODEL TUTORIAL01B      PACKAGE RCHA             ON UNIT   1017 AT TIME STEP     16, STRESS PERIOD      1
 UBDSV06 SAVING              CHD IN MODEL TUTORIAL01B      PACKAGE TUTORIAL01B     CONNECTED TO MODEL TUTORIAL01B      PACKAGE CHD_0            ON UNIT   1017 AT TIME STEP     16, STRESS PERIOD      1

 HEAD WILL BE SAVED ON UNIT 1018 AT END OF TIME STEP   16, STRESS PERIOD    1

end timestep


start timestep kper="1" kstp="17" mode="normal"


 UBDSV1 SAVING           STO-SS ON UNIT   1017 AT TIME STEP     17, STRESS PERIOD      1
 UBDSV1 SAVING           STO-SY ON UNIT   1017 AT TIME STEP     17, STRESS PERIOD      1
 UBDSV1 SAVING     FLOW-JA-FACE ON UNIT   1017 AT TIME STEP     17, STRESS PERIOD      1
 UBDSV06 SAVING              WEL IN MODEL TUTORIAL01B      PACKAGE TUTORIAL01B     CONNECTED TO MODEL TUTORIAL01B      PACKAGE WEL_0            ON UNIT   1017 AT TIME STEP     17, STRESS PERIOD      1
 UBDSV06 SAVING              RCH IN MODEL TUTORIAL01B      PACKAGE TUTORIAL01B     CONNECTED TO MODEL TUTORIAL01B      PACKAGE RCHA             ON UNIT   1017 AT TIME STEP     17, STRESS PERIOD      1
 UBDSV06 SAVING              CHD IN MODEL TUTORIAL01B      PACKAGE TUTORIAL01B     CONNECTED TO MODEL TUTORIAL01B      PACKAGE CHD_0            ON UNIT   1017 AT TIME STEP     17, STRESS PERIOD      1

 HEAD WILL BE SAVED ON UNIT 1018 AT END OF TIME STEP   17, STRESS PERIOD    1

end timestep


start timestep kper="1" kstp="18" mode="normal"


 UBDSV1 SAVING           STO-SS ON UNIT   1017 AT TIME STEP     18, STRESS PERIOD      1
 UBDSV1 SAVING           STO-SY ON UNIT   1017 AT TIME STEP     18, STRESS PERIOD      1
 UBDSV1 SAVING     FLOW-JA-FACE ON UNIT   1017 AT TIME STEP     18, STRESS PERIOD      1
 UBDSV06 SAVING              WEL IN MODEL TUTORIAL01B      PACKAGE TUTORIAL01B     CONNECTED TO MODEL TUTORIAL01B      PACKAGE WEL_0            ON UNIT   1017 AT TIME STEP     18, STRESS PERIOD      1
 UBDSV06 SAVING              RCH IN MODEL TUTORIAL01B      PACKAGE TUTORIAL01B     CONNECTED TO MODEL TUTORIAL01B      PACKAGE RCHA             ON UNIT   1017 AT TIME STEP     18, STRESS PERIOD      1
 UBDSV06 SAVING              CHD IN MODEL TUTORIAL01B      PACKAGE TUTORIAL01B     CONNECTED TO MODEL TUTORIAL01B      PACKAGE CHD_0            ON UNIT   1017 AT TIME STEP     18, STRESS PERIOD      1

 HEAD WILL BE SAVED ON UNIT 1018 AT END OF TIME STEP   18, STRESS PERIOD    1

end timestep


start timestep kper="1" kstp="19" mode="normal"


 UBDSV1 SAVING           STO-SS ON UNIT   1017 AT TIME STEP     19, STRESS PERIOD      1
 UBDSV1 SAVING           STO-SY ON UNIT   1017 AT TIME STEP     19, STRESS PERIOD      1
 UBDSV1 SAVING     FLOW-JA-FACE ON UNIT   1017 AT TIME STEP     19, STRESS PERIOD      1
 UBDSV06 SAVING              WEL IN MODEL TUTORIAL01B      PACKAGE TUTORIAL01B     CONNECTED TO MODEL TUTORIAL01B      PACKAGE WEL_0            ON UNIT   1017 AT TIME STEP     19, STRESS PERIOD      1
 UBDSV06 SAVING              RCH IN MODEL TUTORIAL01B      PACKAGE TUTORIAL01B     CONNECTED TO MODEL TUTORIAL01B      PACKAGE RCHA             ON UNIT   1017 AT TIME STEP     19, STRESS PERIOD      1
 UBDSV06 SAVING              CHD IN MODEL TUTORIAL01B      PACKAGE TUTORIAL01B     CONNECTED TO MODEL TUTORIAL01B      PACKAGE CHD_0            ON UNIT   1017 AT TIME STEP     19, STRESS PERIOD      1

 HEAD WILL BE SAVED ON UNIT 1018 AT END OF TIME STEP   19, STRESS PERIOD    1

end timestep


start timestep kper="1" kstp="20" mode="normal"


 KNMI_ROTTERDAM =  0.2000000E-02

 UBDSV1 SAVING           STO-SS ON UNIT   1017 AT TIME STEP     20, STRESS PERIOD      1
 UBDSV1 SAVING           STO-SY ON UNIT   1017 AT TIME STEP     20, STRESS PERIOD      1
 UBDSV1 SAVING     FLOW-JA-FACE ON UNIT   1017 AT TIME STEP     20, STRESS PERIOD      1
 UBDSV06 SAVING              WEL IN MODEL TUTORIAL01B      PACKAGE TUTORIAL01B     CONNECTED TO MODEL TUTORIAL01B      PACKAGE WEL_0            ON UNIT   1017 AT TIME STEP     20, STRESS PERIOD      1
 UBDSV06 SAVING              RCH IN MODEL TUTORIAL01B      PACKAGE TUTORIAL01B     CONNECTED TO MODEL TUTORIAL01B      PACKAGE RCHA             ON UNIT   1017 AT TIME STEP     20, STRESS PERIOD      1
 UBDSV06 SAVING              CHD IN MODEL TUTORIAL01B      PACKAGE TUTORIAL01B     CONNECTED TO MODEL TUTORIAL01B      PACKAGE CHD_0            ON UNIT   1017 AT TIME STEP     20, STRESS PERIOD      1

 HEAD WILL BE SAVED ON UNIT 1018 AT END OF TIME STEP   20, STRESS PERIOD    1

end timestep


start timestep kper="1" kstp="21" mode="normal"


 UBDSV1 SAVING           STO-SS ON UNIT   1017 AT TIME STEP     21, STRESS PERIOD      1
 UBDSV1 SAVING           STO-SY ON UNIT   1017 AT TIME STEP     21, STRESS PERIOD      1
 UBDSV1 SAVING     FLOW-JA-FACE ON UNIT   1017 AT TIME STEP     21, STRESS PERIOD      1
 UBDSV06 SAVING              WEL IN MODEL TUTORIAL01B      PACKAGE TUTORIAL01B     CONNECTED TO MODEL TUTORIAL01B      PACKAGE WEL_0            ON UNIT   1017 AT TIME STEP     21, STRESS PERIOD      1
 UBDSV06 SAVING              RCH IN MODEL TUTORIAL01B      PACKAGE TUTORIAL01B     CONNECTED TO MODEL TUTORIAL01B      PACKAGE RCHA             ON UNIT   1017 AT TIME STEP     21, STRESS PERIOD      1
 UBDSV06 SAVING              CHD IN MODEL TUTORIAL01B      PACKAGE TUTORIAL01B     CONNECTED TO MODEL TUTORIAL01B      PACKAGE CHD_0            ON UNIT   1017 AT TIME STEP     21, STRESS PERIOD      1

 HEAD WILL BE SAVED ON UNIT 1018 AT END OF TIME STEP   21, STRESS PERIOD    1

end timestep


start timestep kper="1" kstp="22" mode="normal"


 UBDSV1 SAVING           STO-SS ON UNIT   1017 AT TIME STEP     22, STRESS PERIOD      1
 UBDSV1 SAVING           STO-SY ON UNIT   1017 AT TIME STEP     22, STRESS PERIOD      1
 UBDSV1 SAVING     FLOW-JA-FACE ON UNIT   1017 AT TIME STEP     22, STRESS PERIOD      1
 UBDSV06 SAVING              WEL IN MODEL TUTORIAL01B      PACKAGE TUTORIAL01B     CONNECTED TO MODEL TUTORIAL01B      PACKAGE WEL_0            ON UNIT   1017 AT TIME STEP     22, STRESS PERIOD      1
 UBDSV06 SAVING              RCH IN MODEL TUTORIAL01B      PACKAGE TUTORIAL01B     CONNECTED TO MODEL TUTORIAL01B      PACKAGE RCHA             ON UNIT   1017 AT TIME STEP     22, STRESS PERIOD      1
 UBDSV06 SAVING              CHD IN MODEL TUTORIAL01B      PACKAGE TUTORIAL01B     CONNECTED TO MODEL TUTORIAL01B      PACKAGE CHD_0            ON UNIT   1017 AT TIME STEP     22, STRESS PERIOD      1

 HEAD WILL BE SAVED ON UNIT 1018 AT END OF TIME STEP   22, STRESS PERIOD    1

end timestep


start timestep kper="1" kstp="23" mode="normal"


 UBDSV1 SAVING           STO-SS ON UNIT   1017 AT TIME STEP     23, STRESS PERIOD      1
 UBDSV1 SAVING           STO-SY ON UNIT   1017 AT TIME STEP     23, STRESS PERIOD      1
 UBDSV1 SAVING     FLOW-JA-FACE ON UNIT   1017 AT TIME STEP     23, STRESS PERIOD      1
 UBDSV06 SAVING              WEL IN MODEL TUTORIAL01B      PACKAGE TUTORIAL01B     CONNECTED TO MODEL TUTORIAL01B      PACKAGE WEL_0            ON UNIT   1017 AT TIME STEP     23, STRESS PERIOD      1
 UBDSV06 SAVING              RCH IN MODEL TUTORIAL01B      PACKAGE TUTORIAL01B     CONNECTED TO MODEL TUTORIAL01B      PACKAGE RCHA             ON UNIT   1017 AT TIME STEP     23, STRESS PERIOD      1
 UBDSV06 SAVING              CHD IN MODEL TUTORIAL01B      PACKAGE TUTORIAL01B     CONNECTED TO MODEL TUTORIAL01B      PACKAGE CHD_0            ON UNIT   1017 AT TIME STEP     23, STRESS PERIOD      1

 HEAD WILL BE SAVED ON UNIT 1018 AT END OF TIME STEP   23, STRESS PERIOD    1

end timestep


start timestep kper="1" kstp="24" mode="normal"


 UBDSV1 SAVING           STO-SS ON UNIT   1017 AT TIME STEP     24, STRESS PERIOD      1
 UBDSV1 SAVING           STO-SY ON UNIT   1017 AT TIME STEP     24, STRESS PERIOD      1
 UBDSV1 SAVING     FLOW-JA-FACE ON UNIT   1017 AT TIME STEP     24, STRESS PERIOD      1
 UBDSV06 SAVING              WEL IN MODEL TUTORIAL01B      PACKAGE TUTORIAL01B     CONNECTED TO MODEL TUTORIAL01B      PACKAGE WEL_0            ON UNIT   1017 AT TIME STEP     24, STRESS PERIOD      1
 UBDSV06 SAVING              RCH IN MODEL TUTORIAL01B      PACKAGE TUTORIAL01B     CONNECTED TO MODEL TUTORIAL01B      PACKAGE RCHA             ON UNIT   1017 AT TIME STEP     24, STRESS PERIOD      1
 UBDSV06 SAVING              CHD IN MODEL TUTORIAL01B      PACKAGE TUTORIAL01B     CONNECTED TO MODEL TUTORIAL01B      PACKAGE CHD_0            ON UNIT   1017 AT TIME STEP     24, STRESS PERIOD      1

 HEAD WILL BE SAVED ON UNIT 1018 AT END OF TIME STEP   24, STRESS PERIOD    1

end timestep


start timestep kper="1" kstp="25" mode="normal"


 KNMI_ROTTERDAM =   0.000000    

 UBDSV1 SAVING           STO-SS ON UNIT   1017 AT TIME STEP     25, STRESS PERIOD      1
 UBDSV1 SAVING           STO-SY ON UNIT   1017 AT TIME STEP     25, STRESS PERIOD      1
 UBDSV1 SAVING     FLOW-JA-FACE ON UNIT   1017 AT TIME STEP     25, STRESS PERIOD      1
 UBDSV06 SAVING              WEL IN MODEL TUTORIAL01B      PACKAGE TUTORIAL01B     CONNECTED TO MODEL TUTORIAL01B      PACKAGE WEL_0            ON UNIT   1017 AT TIME STEP     25, STRESS PERIOD      1
 UBDSV06 SAVING              RCH IN MODEL TUTORIAL01B      PACKAGE TUTORIAL01B     CONNECTED TO MODEL TUTORIAL01B      PACKAGE RCHA             ON UNIT   1017 AT TIME STEP     25, STRESS PERIOD      1
 UBDSV06 SAVING              CHD IN MODEL TUTORIAL01B      PACKAGE TUTORIAL01B     CONNECTED TO MODEL TUTORIAL01B      PACKAGE CHD_0            ON UNIT   1017 AT TIME STEP     25, STRESS PERIOD      1

 HEAD WILL BE SAVED ON UNIT 1018 AT END OF TIME STEP   25, STRESS PERIOD    1

end timestep


start timestep kper="1" kstp="26" mode="normal"


 UBDSV1 SAVING           STO-SS ON UNIT   1017 AT TIME STEP     26, STRESS PERIOD      1
 UBDSV1 SAVING           STO-SY ON UNIT   1017 AT TIME STEP     26, STRESS PERIOD      1
 UBDSV1 SAVING     FLOW-JA-FACE ON UNIT   1017 AT TIME STEP     26, STRESS PERIOD      1
 UBDSV06 SAVING              WEL IN MODEL TUTORIAL01B      PACKAGE TUTORIAL01B     CONNECTED TO MODEL TUTORIAL01B      PACKAGE WEL_0            ON UNIT   1017 AT TIME STEP     26, STRESS PERIOD      1
 UBDSV06 SAVING              RCH IN MODEL TUTORIAL01B      PACKAGE TUTORIAL01B     CONNECTED TO MODEL TUTORIAL01B      PACKAGE RCHA             ON UNIT   1017 AT TIME STEP     26, STRESS PERIOD      1
 UBDSV06 SAVING              CHD IN MODEL TUTORIAL01B      PACKAGE TUTORIAL01B     CONNECTED TO MODEL TUTORIAL01B      PACKAGE CHD_0            ON UNIT   1017 AT TIME STEP     26, STRESS PERIOD      1

 HEAD WILL BE SAVED ON UNIT 1018 AT END OF TIME STEP   26, STRESS PERIOD    1

end timestep


start timestep kper="1" kstp="27" mode="normal"


 UBDSV1 SAVING           STO-SS ON UNIT   1017 AT TIME STEP     27, STRESS PERIOD      1
 UBDSV1 SAVING           STO-SY ON UNIT   1017 AT TIME STEP     27, STRESS PERIOD      1
 UBDSV1 SAVING     FLOW-JA-FACE ON UNIT   1017 AT TIME STEP     27, STRESS PERIOD      1
 UBDSV06 SAVING              WEL IN MODEL TUTORIAL01B      PACKAGE TUTORIAL01B     CONNECTED TO MODEL TUTORIAL01B      PACKAGE WEL_0            ON UNIT   1017 AT TIME STEP     27, STRESS PERIOD      1
 UBDSV06 SAVING              RCH IN MODEL TUTORIAL01B      PACKAGE TUTORIAL01B     CONNECTED TO MODEL TUTORIAL01B      PACKAGE RCHA             ON UNIT   1017 AT TIME STEP     27, STRESS PERIOD      1
 UBDSV06 SAVING              CHD IN MODEL TUTORIAL01B      PACKAGE TUTORIAL01B     CONNECTED TO MODEL TUTORIAL01B      PACKAGE CHD_0            ON UNIT   1017 AT TIME STEP     27, STRESS PERIOD      1

 HEAD WILL BE SAVED ON UNIT 1018 AT END OF TIME STEP   27, STRESS PERIOD    1

end timestep


start timestep kper="1" kstp="28" mode="normal"


 UBDSV1 SAVING           STO-SS ON UNIT   1017 AT TIME STEP     28, STRESS PERIOD      1
 UBDSV1 SAVING           STO-SY ON UNIT   1017 AT TIME STEP     28, STRESS PERIOD      1
 UBDSV1 SAVING     FLOW-JA-FACE ON UNIT   1017 AT TIME STEP     28, STRESS PERIOD      1
 UBDSV06 SAVING              WEL IN MODEL TUTORIAL01B      PACKAGE TUTORIAL01B     CONNECTED TO MODEL TUTORIAL01B      PACKAGE WEL_0            ON UNIT   1017 AT TIME STEP     28, STRESS PERIOD      1
 UBDSV06 SAVING              RCH IN MODEL TUTORIAL01B      PACKAGE TUTORIAL01B     CONNECTED TO MODEL TUTORIAL01B      PACKAGE RCHA             ON UNIT   1017 AT TIME STEP     28, STRESS PERIOD      1
 UBDSV06 SAVING              CHD IN MODEL TUTORIAL01B      PACKAGE TUTORIAL01B     CONNECTED TO MODEL TUTORIAL01B      PACKAGE CHD_0            ON UNIT   1017 AT TIME STEP     28, STRESS PERIOD      1

 HEAD WILL BE SAVED ON UNIT 1018 AT END OF TIME STEP   28, STRESS PERIOD    1

end timestep


start timestep kper="1" kstp="29" mode="normal"


 UBDSV1 SAVING           STO-SS ON UNIT   1017 AT TIME STEP     29, STRESS PERIOD      1
 UBDSV1 SAVING           STO-SY ON UNIT   1017 AT TIME STEP     29, STRESS PERIOD      1
 UBDSV1 SAVING     FLOW-JA-FACE ON UNIT   1017 AT TIME STEP     29, STRESS PERIOD      1
 UBDSV06 SAVING              WEL IN MODEL TUTORIAL01B      PACKAGE TUTORIAL01B     CONNECTED TO MODEL TUTORIAL01B      PACKAGE WEL_0            ON UNIT   1017 AT TIME STEP     29, STRESS PERIOD      1
 UBDSV06 SAVING              RCH IN MODEL TUTORIAL01B      PACKAGE TUTORIAL01B     CONNECTED TO MODEL TUTORIAL01B      PACKAGE RCHA             ON UNIT   1017 AT TIME STEP     29, STRESS PERIOD      1
 UBDSV06 SAVING              CHD IN MODEL TUTORIAL01B      PACKAGE TUTORIAL01B     CONNECTED TO MODEL TUTORIAL01B      PACKAGE CHD_0            ON UNIT   1017 AT TIME STEP     29, STRESS PERIOD      1

 HEAD WILL BE SAVED ON UNIT 1018 AT END OF TIME STEP   29, STRESS PERIOD    1

end timestep


start timestep kper="1" kstp="30" mode="normal"


 KNMI_ROTTERDAM = -0.2000000E-02

 UBDSV1 SAVING           STO-SS ON UNIT   1017 AT TIME STEP     30, STRESS PERIOD      1
 UBDSV1 SAVING           STO-SY ON UNIT   1017 AT TIME STEP     30, STRESS PERIOD      1
 UBDSV1 SAVING     FLOW-JA-FACE ON UNIT   1017 AT TIME STEP     30, STRESS PERIOD      1
 UBDSV06 SAVING              WEL IN MODEL TUTORIAL01B      PACKAGE TUTORIAL01B     CONNECTED TO MODEL TUTORIAL01B      PACKAGE WEL_0            ON UNIT   1017 AT TIME STEP     30, STRESS PERIOD      1
 UBDSV06 SAVING              RCH IN MODEL TUTORIAL01B      PACKAGE TUTORIAL01B     CONNECTED TO MODEL TUTORIAL01B      PACKAGE RCHA             ON UNIT   1017 AT TIME STEP     30, STRESS PERIOD      1
 UBDSV06 SAVING              CHD IN MODEL TUTORIAL01B      PACKAGE TUTORIAL01B     CONNECTED TO MODEL TUTORIAL01B      PACKAGE CHD_0            ON UNIT   1017 AT TIME STEP     30, STRESS PERIOD      1

 HEAD WILL BE SAVED ON UNIT 1018 AT END OF TIME STEP   30, STRESS PERIOD    1

end timestep


start timestep kper="1" kstp="31" mode="normal"


 UBDSV1 SAVING           STO-SS ON UNIT   1017 AT TIME STEP     31, STRESS PERIOD      1
 UBDSV1 SAVING           STO-SY ON UNIT   1017 AT TIME STEP     31, STRESS PERIOD      1
 UBDSV1 SAVING     FLOW-JA-FACE ON UNIT   1017 AT TIME STEP     31, STRESS PERIOD      1
 UBDSV06 SAVING              WEL IN MODEL TUTORIAL01B      PACKAGE TUTORIAL01B     CONNECTED TO MODEL TUTORIAL01B      PACKAGE WEL_0            ON UNIT   1017 AT TIME STEP     31, STRESS PERIOD      1
 UBDSV06 SAVING              RCH IN MODEL TUTORIAL01B      PACKAGE TUTORIAL01B     CONNECTED TO MODEL TUTORIAL01B      PACKAGE RCHA             ON UNIT   1017 AT TIME STEP     31, STRESS PERIOD      1
 UBDSV06 SAVING              CHD IN MODEL TUTORIAL01B      PACKAGE TUTORIAL01B     CONNECTED TO MODEL TUTORIAL01B      PACKAGE CHD_0            ON UNIT   1017 AT TIME STEP     31, STRESS PERIOD      1

 HEAD WILL BE SAVED ON UNIT 1018 AT END OF TIME STEP   31, STRESS PERIOD    1

end timestep


start timestep kper="1" kstp="32" mode="normal"


 UBDSV1 SAVING           STO-SS ON UNIT   1017 AT TIME STEP     32, STRESS PERIOD      1
 UBDSV1 SAVING           STO-SY ON UNIT   1017 AT TIME STEP     32, STRESS PERIOD      1
 UBDSV1 SAVING     FLOW-JA-FACE ON UNIT   1017 AT TIME STEP     32, STRESS PERIOD      1
 UBDSV06 SAVING              WEL IN MODEL TUTORIAL01B      PACKAGE TUTORIAL01B     CONNECTED TO MODEL TUTORIAL01B      PACKAGE WEL_0            ON UNIT   1017 AT TIME STEP     32, STRESS PERIOD      1
 UBDSV06 SAVING              RCH IN MODEL TUTORIAL01B      PACKAGE TUTORIAL01B     CONNECTED TO MODEL TUTORIAL01B      PACKAGE RCHA             ON UNIT   1017 AT TIME STEP     32, STRESS PERIOD      1
 UBDSV06 SAVING              CHD IN MODEL TUTORIAL01B      PACKAGE TUTORIAL01B     CONNECTED TO MODEL TUTORIAL01B      PACKAGE CHD_0            ON UNIT   1017 AT TIME STEP     32, STRESS PERIOD      1

 HEAD WILL BE SAVED ON UNIT 1018 AT END OF TIME STEP   32, STRESS PERIOD    1

end timestep


start timestep kper="1" kstp="33" mode="normal"


 UBDSV1 SAVING           STO-SS ON UNIT   1017 AT TIME STEP     33, STRESS PERIOD      1
 UBDSV1 SAVING           STO-SY ON UNIT   1017 AT TIME STEP     33, STRESS PERIOD      1
 UBDSV1 SAVING     FLOW-JA-FACE ON UNIT   1017 AT TIME STEP     33, STRESS PERIOD      1
 UBDSV06 SAVING              WEL IN MODEL TUTORIAL01B      PACKAGE TUTORIAL01B     CONNECTED TO MODEL TUTORIAL01B      PACKAGE WEL_0            ON UNIT   1017 AT TIME STEP     33, STRESS PERIOD      1
 UBDSV06 SAVING              RCH IN MODEL TUTORIAL01B      PACKAGE TUTORIAL01B     CONNECTED TO MODEL TUTORIAL01B      PACKAGE RCHA             ON UNIT   1017 AT TIME STEP     33, STRESS PERIOD      1
 UBDSV06 SAVING              CHD IN MODEL TUTORIAL01B      PACKAGE TUTORIAL01B     CONNECTED TO MODEL TUTORIAL01B      PACKAGE CHD_0            ON UNIT   1017 AT TIME STEP     33, STRESS PERIOD      1

 HEAD WILL BE SAVED ON UNIT 1018 AT END OF TIME STEP   33, STRESS PERIOD    1

end timestep


start timestep kper="1" kstp="34" mode="normal"


 UBDSV1 SAVING           STO-SS ON UNIT   1017 AT TIME STEP     34, STRESS PERIOD      1
 UBDSV1 SAVING           STO-SY ON UNIT   1017 AT TIME STEP     34, STRESS PERIOD      1
 UBDSV1 SAVING     FLOW-JA-FACE ON UNIT   1017 AT TIME STEP     34, STRESS PERIOD      1
 UBDSV06 SAVING              WEL IN MODEL TUTORIAL01B      PACKAGE TUTORIAL01B     CONNECTED TO MODEL TUTORIAL01B      PACKAGE WEL_0            ON UNIT   1017 AT TIME STEP     34, STRESS PERIOD      1
 UBDSV06 SAVING              RCH IN MODEL TUTORIAL01B      PACKAGE TUTORIAL01B     CONNECTED TO MODEL TUTORIAL01B      PACKAGE RCHA             ON UNIT   1017 AT TIME STEP     34, STRESS PERIOD      1
 UBDSV06 SAVING              CHD IN MODEL TUTORIAL01B      PACKAGE TUTORIAL01B     CONNECTED TO MODEL TUTORIAL01B      PACKAGE CHD_0            ON UNIT   1017 AT TIME STEP     34, STRESS PERIOD      1

 HEAD WILL BE SAVED ON UNIT 1018 AT END OF TIME STEP   34, STRESS PERIOD    1

end timestep


start timestep kper="1" kstp="35" mode="normal"


 KNMI_ROTTERDAM = -0.4000000E-02

 UBDSV1 SAVING           STO-SS ON UNIT   1017 AT TIME STEP     35, STRESS PERIOD      1
 UBDSV1 SAVING           STO-SY ON UNIT   1017 AT TIME STEP     35, STRESS PERIOD      1
 UBDSV1 SAVING     FLOW-JA-FACE ON UNIT   1017 AT TIME STEP     35, STRESS PERIOD      1
 UBDSV06 SAVING              WEL IN MODEL TUTORIAL01B      PACKAGE TUTORIAL01B     CONNECTED TO MODEL TUTORIAL01B      PACKAGE WEL_0            ON UNIT   1017 AT TIME STEP     35, STRESS PERIOD      1
 UBDSV06 SAVING              RCH IN MODEL TUTORIAL01B      PACKAGE TUTORIAL01B     CONNECTED TO MODEL TUTORIAL01B      PACKAGE RCHA             ON UNIT   1017 AT TIME STEP     35, STRESS PERIOD      1
 UBDSV06 SAVING              CHD IN MODEL TUTORIAL01B      PACKAGE TUTORIAL01B     CONNECTED TO MODEL TUTORIAL01B      PACKAGE CHD_0            ON UNIT   1017 AT TIME STEP     35, STRESS PERIOD      1

 HEAD WILL BE SAVED ON UNIT 1018 AT END OF TIME STEP   35, STRESS PERIOD    1

end timestep


start timestep kper="1" kstp="36" mode="normal"


 UBDSV1 SAVING           STO-SS ON UNIT   1017 AT TIME STEP     36, STRESS PERIOD      1
 UBDSV1 SAVING           STO-SY ON UNIT   1017 AT TIME STEP     36, STRESS PERIOD      1
 UBDSV1 SAVING     FLOW-JA-FACE ON UNIT   1017 AT TIME STEP     36, STRESS PERIOD      1
 UBDSV06 SAVING              WEL IN MODEL TUTORIAL01B      PACKAGE TUTORIAL01B     CONNECTED TO MODEL TUTORIAL01B      PACKAGE WEL_0            ON UNIT   1017 AT TIME STEP     36, STRESS PERIOD      1
 UBDSV06 SAVING              RCH IN MODEL TUTORIAL01B      PACKAGE TUTORIAL01B     CONNECTED TO MODEL TUTORIAL01B      PACKAGE RCHA             ON UNIT   1017 AT TIME STEP     36, STRESS PERIOD      1
 UBDSV06 SAVING              CHD IN MODEL TUTORIAL01B      PACKAGE TUTORIAL01B     CONNECTED TO MODEL TUTORIAL01B      PACKAGE CHD_0            ON UNIT   1017 AT TIME STEP     36, STRESS PERIOD      1

 HEAD WILL BE SAVED ON UNIT 1018 AT END OF TIME STEP   36, STRESS PERIOD    1

end timestep


start timestep kper="1" kstp="37" mode="normal"


 UBDSV1 SAVING           STO-SS ON UNIT   1017 AT TIME STEP     37, STRESS PERIOD      1
 UBDSV1 SAVING           STO-SY ON UNIT   1017 AT TIME STEP     37, STRESS PERIOD      1
 UBDSV1 SAVING     FLOW-JA-FACE ON UNIT   1017 AT TIME STEP     37, STRESS PERIOD      1
 UBDSV06 SAVING              WEL IN MODEL TUTORIAL01B      PACKAGE TUTORIAL01B     CONNECTED TO MODEL TUTORIAL01B      PACKAGE WEL_0            ON UNIT   1017 AT TIME STEP     37, STRESS PERIOD      1
 UBDSV06 SAVING              RCH IN MODEL TUTORIAL01B      PACKAGE TUTORIAL01B     CONNECTED TO MODEL TUTORIAL01B      PACKAGE RCHA             ON UNIT   1017 AT TIME STEP     37, STRESS PERIOD      1
 UBDSV06 SAVING              CHD IN MODEL TUTORIAL01B      PACKAGE TUTORIAL01B     CONNECTED TO MODEL TUTORIAL01B      PACKAGE CHD_0            ON UNIT   1017 AT TIME STEP     37, STRESS PERIOD      1

 HEAD WILL BE SAVED ON UNIT 1018 AT END OF TIME STEP   37, STRESS PERIOD    1

end timestep


start timestep kper="1" kstp="38" mode="normal"


 UBDSV1 SAVING           STO-SS ON UNIT   1017 AT TIME STEP     38, STRESS PERIOD      1
 UBDSV1 SAVING           STO-SY ON UNIT   1017 AT TIME STEP     38, STRESS PERIOD      1
 UBDSV1 SAVING     FLOW-JA-FACE ON UNIT   1017 AT TIME STEP     38, STRESS PERIOD      1
 UBDSV06 SAVING              WEL IN MODEL TUTORIAL01B      PACKAGE TUTORIAL01B     CONNECTED TO MODEL TUTORIAL01B      PACKAGE WEL_0            ON UNIT   1017 AT TIME STEP     38, STRESS PERIOD      1
 UBDSV06 SAVING              RCH IN MODEL TUTORIAL01B      PACKAGE TUTORIAL01B     CONNECTED TO MODEL TUTORIAL01B      PACKAGE RCHA             ON UNIT   1017 AT TIME STEP     38, STRESS PERIOD      1
 UBDSV06 SAVING              CHD IN MODEL TUTORIAL01B      PACKAGE TUTORIAL01B     CONNECTED TO MODEL TUTORIAL01B      PACKAGE CHD_0            ON UNIT   1017 AT TIME STEP     38, STRESS PERIOD      1

 HEAD WILL BE SAVED ON UNIT 1018 AT END OF TIME STEP   38, STRESS PERIOD    1

end timestep


start timestep kper="1" kstp="39" mode="normal"


 UBDSV1 SAVING           STO-SS ON UNIT   1017 AT TIME STEP     39, STRESS PERIOD      1
 UBDSV1 SAVING           STO-SY ON UNIT   1017 AT TIME STEP     39, STRESS PERIOD      1
 UBDSV1 SAVING     FLOW-JA-FACE ON UNIT   1017 AT TIME STEP     39, STRESS PERIOD      1
 UBDSV06 SAVING              WEL IN MODEL TUTORIAL01B      PACKAGE TUTORIAL01B     CONNECTED TO MODEL TUTORIAL01B      PACKAGE WEL_0            ON UNIT   1017 AT TIME STEP     39, STRESS PERIOD      1
 UBDSV06 SAVING              RCH IN MODEL TUTORIAL01B      PACKAGE TUTORIAL01B     CONNECTED TO MODEL TUTORIAL01B      PACKAGE RCHA             ON UNIT   1017 AT TIME STEP     39, STRESS PERIOD      1
 UBDSV06 SAVING              CHD IN MODEL TUTORIAL01B      PACKAGE TUTORIAL01B     CONNECTED TO MODEL TUTORIAL01B      PACKAGE CHD_0            ON UNIT   1017 AT TIME STEP     39, STRESS PERIOD      1

 HEAD WILL BE SAVED ON UNIT 1018 AT END OF TIME STEP   39, STRESS PERIOD    1

end timestep


start timestep kper="1" kstp="40" mode="normal"


 KNMI_ROTTERDAM =  0.1000000E-02

 UBDSV1 SAVING           STO-SS ON UNIT   1017 AT TIME STEP     40, STRESS PERIOD      1
 UBDSV1 SAVING           STO-SY ON UNIT   1017 AT TIME STEP     40, STRESS PERIOD      1
 UBDSV1 SAVING     FLOW-JA-FACE ON UNIT   1017 AT TIME STEP     40, STRESS PERIOD      1
 UBDSV06 SAVING              WEL IN MODEL TUTORIAL01B      PACKAGE TUTORIAL01B     CONNECTED TO MODEL TUTORIAL01B      PACKAGE WEL_0            ON UNIT   1017 AT TIME STEP     40, STRESS PERIOD      1
 UBDSV06 SAVING              RCH IN MODEL TUTORIAL01B      PACKAGE TUTORIAL01B     CONNECTED TO MODEL TUTORIAL01B      PACKAGE RCHA             ON UNIT   1017 AT TIME STEP     40, STRESS PERIOD      1
 UBDSV06 SAVING              CHD IN MODEL TUTORIAL01B      PACKAGE TUTORIAL01B     CONNECTED TO MODEL TUTORIAL01B      PACKAGE CHD_0            ON UNIT   1017 AT TIME STEP     40, STRESS PERIOD      1

 HEAD WILL BE SAVED ON UNIT 1018 AT END OF TIME STEP   40, STRESS PERIOD    1

end timestep


start timestep kper="1" kstp="41" mode="normal"


 UBDSV1 SAVING           STO-SS ON UNIT   1017 AT TIME STEP     41, STRESS PERIOD      1
 UBDSV1 SAVING           STO-SY ON UNIT   1017 AT TIME STEP     41, STRESS PERIOD      1
 UBDSV1 SAVING     FLOW-JA-FACE ON UNIT   1017 AT TIME STEP     41, STRESS PERIOD      1
 UBDSV06 SAVING              WEL IN MODEL TUTORIAL01B      PACKAGE TUTORIAL01B     CONNECTED TO MODEL TUTORIAL01B      PACKAGE WEL_0            ON UNIT   1017 AT TIME STEP     41, STRESS PERIOD      1
 UBDSV06 SAVING              RCH IN MODEL TUTORIAL01B      PACKAGE TUTORIAL01B     CONNECTED TO MODEL TUTORIAL01B      PACKAGE RCHA             ON UNIT   1017 AT TIME STEP     41, STRESS PERIOD      1
 UBDSV06 SAVING              CHD IN MODEL TUTORIAL01B      PACKAGE TUTORIAL01B     CONNECTED TO MODEL TUTORIAL01B      PACKAGE CHD_0            ON UNIT   1017 AT TIME STEP     41, STRESS PERIOD      1

 HEAD WILL BE SAVED ON UNIT 1018 AT END OF TIME STEP   41, STRESS PERIOD    1

end timestep


start timestep kper="1" kstp="42" mode="normal"


 UBDSV1 SAVING           STO-SS ON UNIT   1017 AT TIME STEP     42, STRESS PERIOD      1
 UBDSV1 SAVING           STO-SY ON UNIT   1017 AT TIME STEP     42, STRESS PERIOD      1
 UBDSV1 SAVING     FLOW-JA-FACE ON UNIT   1017 AT TIME STEP     42, STRESS PERIOD      1
 UBDSV06 SAVING              WEL IN MODEL TUTORIAL01B      PACKAGE TUTORIAL01B     CONNECTED TO MODEL TUTORIAL01B      PACKAGE WEL_0            ON UNIT   1017 AT TIME STEP     42, STRESS PERIOD      1
 UBDSV06 SAVING              RCH IN MODEL TUTORIAL01B      PACKAGE TUTORIAL01B     CONNECTED TO MODEL TUTORIAL01B      PACKAGE RCHA             ON UNIT   1017 AT TIME STEP     42, STRESS PERIOD      1
 UBDSV06 SAVING              CHD IN MODEL TUTORIAL01B      PACKAGE TUTORIAL01B     CONNECTED TO MODEL TUTORIAL01B      PACKAGE CHD_0            ON UNIT   1017 AT TIME STEP     42, STRESS PERIOD      1

 HEAD WILL BE SAVED ON UNIT 1018 AT END OF TIME STEP   42, STRESS PERIOD    1

end timestep


start timestep kper="1" kstp="43" mode="normal"


 UBDSV1 SAVING           STO-SS ON UNIT   1017 AT TIME STEP     43, STRESS PERIOD      1
 UBDSV1 SAVING           STO-SY ON UNIT   1017 AT TIME STEP     43, STRESS PERIOD      1
 UBDSV1 SAVING     FLOW-JA-FACE ON UNIT   1017 AT TIME STEP     43, STRESS PERIOD      1
 UBDSV06 SAVING              WEL IN MODEL TUTORIAL01B      PACKAGE TUTORIAL01B     CONNECTED TO MODEL TUTORIAL01B      PACKAGE WEL_0            ON UNIT   1017 AT TIME STEP     43, STRESS PERIOD      1
 UBDSV06 SAVING              RCH IN MODEL TUTORIAL01B      PACKAGE TUTORIAL01B     CONNECTED TO MODEL TUTORIAL01B      PACKAGE RCHA             ON UNIT   1017 AT TIME STEP     43, STRESS PERIOD      1
 UBDSV06 SAVING              CHD IN MODEL TUTORIAL01B      PACKAGE TUTORIAL01B     CONNECTED TO MODEL TUTORIAL01B      PACKAGE CHD_0            ON UNIT   1017 AT TIME STEP     43, STRESS PERIOD      1

 HEAD WILL BE SAVED ON UNIT 1018 AT END OF TIME STEP   43, STRESS PERIOD    1

end timestep


start timestep kper="1" kstp="44" mode="normal"


 UBDSV1 SAVING           STO-SS ON UNIT   1017 AT TIME STEP     44, STRESS PERIOD      1
 UBDSV1 SAVING           STO-SY ON UNIT   1017 AT TIME STEP     44, STRESS PERIOD      1
 UBDSV1 SAVING     FLOW-JA-FACE ON UNIT   1017 AT TIME STEP     44, STRESS PERIOD      1
 UBDSV06 SAVING              WEL IN MODEL TUTORIAL01B      PACKAGE TUTORIAL01B     CONNECTED TO MODEL TUTORIAL01B      PACKAGE WEL_0            ON UNIT   1017 AT TIME STEP     44, STRESS PERIOD      1
 UBDSV06 SAVING              RCH IN MODEL TUTORIAL01B      PACKAGE TUTORIAL01B     CONNECTED TO MODEL TUTORIAL01B      PACKAGE RCHA             ON UNIT   1017 AT TIME STEP     44, STRESS PERIOD      1
 UBDSV06 SAVING              CHD IN MODEL TUTORIAL01B      PACKAGE TUTORIAL01B     CONNECTED TO MODEL TUTORIAL01B      PACKAGE CHD_0            ON UNIT   1017 AT TIME STEP     44, STRESS PERIOD      1

 HEAD WILL BE SAVED ON UNIT 1018 AT END OF TIME STEP   44, STRESS PERIOD    1

end timestep


start timestep kper="1" kstp="45" mode="normal"


 UBDSV1 SAVING           STO-SS ON UNIT   1017 AT TIME STEP     45, STRESS PERIOD      1
 UBDSV1 SAVING           STO-SY ON UNIT   1017 AT TIME STEP     45, STRESS PERIOD      1
 UBDSV1 SAVING     FLOW-JA-FACE ON UNIT   1017 AT TIME STEP     45, STRESS PERIOD      1
 UBDSV06 SAVING              WEL IN MODEL TUTORIAL01B      PACKAGE TUTORIAL01B     CONNECTED TO MODEL TUTORIAL01B      PACKAGE WEL_0            ON UNIT   1017 AT TIME STEP     45, STRESS PERIOD      1
 UBDSV06 SAVING              RCH IN MODEL TUTORIAL01B      PACKAGE TUTORIAL01B     CONNECTED TO MODEL TUTORIAL01B      PACKAGE RCHA             ON UNIT   1017 AT TIME STEP     45, STRESS PERIOD      1
 UBDSV06 SAVING              CHD IN MODEL TUTORIAL01B      PACKAGE TUTORIAL01B     CONNECTED TO MODEL TUTORIAL01B      PACKAGE CHD_0            ON UNIT   1017 AT TIME STEP     45, STRESS PERIOD      1

 HEAD WILL BE SAVED ON UNIT 1018 AT END OF TIME STEP   45, STRESS PERIOD    1

end timestep


start timestep kper="1" kstp="46" mode="normal"


 UBDSV1 SAVING           STO-SS ON UNIT   1017 AT TIME STEP     46, STRESS PERIOD      1
 UBDSV1 SAVING           STO-SY ON UNIT   1017 AT TIME STEP     46, STRESS PERIOD      1
 UBDSV1 SAVING     FLOW-JA-FACE ON UNIT   1017 AT TIME STEP     46, STRESS PERIOD      1
 UBDSV06 SAVING              WEL IN MODEL TUTORIAL01B      PACKAGE TUTORIAL01B     CONNECTED TO MODEL TUTORIAL01B      PACKAGE WEL_0            ON UNIT   1017 AT TIME STEP     46, STRESS PERIOD      1
 UBDSV06 SAVING              RCH IN MODEL TUTORIAL01B      PACKAGE TUTORIAL01B     CONNECTED TO MODEL TUTORIAL01B      PACKAGE RCHA             ON UNIT   1017 AT TIME STEP     46, STRESS PERIOD      1
 UBDSV06 SAVING              CHD IN MODEL TUTORIAL01B      PACKAGE TUTORIAL01B     CONNECTED TO MODEL TUTORIAL01B      PACKAGE CHD_0            ON UNIT   1017 AT TIME STEP     46, STRESS PERIOD      1

 HEAD WILL BE SAVED ON UNIT 1018 AT END OF TIME STEP   46, STRESS PERIOD    1

end timestep


start timestep kper="1" kstp="47" mode="normal"


 UBDSV1 SAVING           STO-SS ON UNIT   1017 AT TIME STEP     47, STRESS PERIOD      1
 UBDSV1 SAVING           STO-SY ON UNIT   1017 AT TIME STEP     47, STRESS PERIOD      1
 UBDSV1 SAVING     FLOW-JA-FACE ON UNIT   1017 AT TIME STEP     47, STRESS PERIOD      1
 UBDSV06 SAVING              WEL IN MODEL TUTORIAL01B      PACKAGE TUTORIAL01B     CONNECTED TO MODEL TUTORIAL01B      PACKAGE WEL_0            ON UNIT   1017 AT TIME STEP     47, STRESS PERIOD      1
 UBDSV06 SAVING              RCH IN MODEL TUTORIAL01B      PACKAGE TUTORIAL01B     CONNECTED TO MODEL TUTORIAL01B      PACKAGE RCHA             ON UNIT   1017 AT TIME STEP     47, STRESS PERIOD      1
 UBDSV06 SAVING              CHD IN MODEL TUTORIAL01B      PACKAGE TUTORIAL01B     CONNECTED TO MODEL TUTORIAL01B      PACKAGE CHD_0            ON UNIT   1017 AT TIME STEP     47, STRESS PERIOD      1

 HEAD WILL BE SAVED ON UNIT 1018 AT END OF TIME STEP   47, STRESS PERIOD    1

end timestep


start timestep kper="1" kstp="48" mode="normal"


 UBDSV1 SAVING           STO-SS ON UNIT   1017 AT TIME STEP     48, STRESS PERIOD      1
 UBDSV1 SAVING           STO-SY ON UNIT   1017 AT TIME STEP     48, STRESS PERIOD      1
 UBDSV1 SAVING     FLOW-JA-FACE ON UNIT   1017 AT TIME STEP     48, STRESS PERIOD      1
 UBDSV06 SAVING              WEL IN MODEL TUTORIAL01B      PACKAGE TUTORIAL01B     CONNECTED TO MODEL TUTORIAL01B      PACKAGE WEL_0            ON UNIT   1017 AT TIME STEP     48, STRESS PERIOD      1
 UBDSV06 SAVING              RCH IN MODEL TUTORIAL01B      PACKAGE TUTORIAL01B     CONNECTED TO MODEL TUTORIAL01B      PACKAGE RCHA             ON UNIT   1017 AT TIME STEP     48, STRESS PERIOD      1
 UBDSV06 SAVING              CHD IN MODEL TUTORIAL01B      PACKAGE TUTORIAL01B     CONNECTED TO MODEL TUTORIAL01B      PACKAGE CHD_0            ON UNIT   1017 AT TIME STEP     48, STRESS PERIOD      1

 HEAD WILL BE SAVED ON UNIT 1018 AT END OF TIME STEP   48, STRESS PERIOD    1

end timestep


start timestep kper="1" kstp="49" mode="normal"


 UBDSV1 SAVING           STO-SS ON UNIT   1017 AT TIME STEP     49, STRESS PERIOD      1
 UBDSV1 SAVING           STO-SY ON UNIT   1017 AT TIME STEP     49, STRESS PERIOD      1
 UBDSV1 SAVING     FLOW-JA-FACE ON UNIT   1017 AT TIME STEP     49, STRESS PERIOD      1
 UBDSV06 SAVING              WEL IN MODEL TUTORIAL01B      PACKAGE TUTORIAL01B     CONNECTED TO MODEL TUTORIAL01B      PACKAGE WEL_0            ON UNIT   1017 AT TIME STEP     49, STRESS PERIOD      1
 UBDSV06 SAVING              RCH IN MODEL TUTORIAL01B      PACKAGE TUTORIAL01B     CONNECTED TO MODEL TUTORIAL01B      PACKAGE RCHA             ON UNIT   1017 AT TIME STEP     49, STRESS PERIOD      1
 UBDSV06 SAVING              CHD IN MODEL TUTORIAL01B      PACKAGE TUTORIAL01B     CONNECTED TO MODEL TUTORIAL01B      PACKAGE CHD_0            ON UNIT   1017 AT TIME STEP     49, STRESS PERIOD      1

 HEAD WILL BE SAVED ON UNIT 1018 AT END OF TIME STEP   49, STRESS PERIOD    1

end timestep


start timestep kper="1" kstp="50" mode="normal"


 UBDSV1 SAVING           STO-SS ON UNIT   1017 AT TIME STEP     50, STRESS PERIOD      1
 UBDSV1 SAVING           STO-SY ON UNIT   1017 AT TIME STEP     50, STRESS PERIOD      1
 UBDSV1 SAVING     FLOW-JA-FACE ON UNIT   1017 AT TIME STEP     50, STRESS PERIOD      1
 UBDSV06 SAVING              WEL IN MODEL TUTORIAL01B      PACKAGE TUTORIAL01B     CONNECTED TO MODEL TUTORIAL01B      PACKAGE WEL_0            ON UNIT   1017 AT TIME STEP     50, STRESS PERIOD      1
 UBDSV06 SAVING              RCH IN MODEL TUTORIAL01B      PACKAGE TUTORIAL01B     CONNECTED TO MODEL TUTORIAL01B      PACKAGE RCHA             ON UNIT   1017 AT TIME STEP     50, STRESS PERIOD      1
 UBDSV06 SAVING              CHD IN MODEL TUTORIAL01B      PACKAGE TUTORIAL01B     CONNECTED TO MODEL TUTORIAL01B      PACKAGE CHD_0            ON UNIT   1017 AT TIME STEP     50, STRESS PERIOD      1

 HEAD WILL BE SAVED ON UNIT 1018 AT END OF TIME STEP   50, STRESS PERIOD    1

end timestep


start timestep kper="1" kstp="51" mode="normal"


 UBDSV1 SAVING           STO-SS ON UNIT   1017 AT TIME STEP     51, STRESS PERIOD      1
 UBDSV1 SAVING           STO-SY ON UNIT   1017 AT TIME STEP     51, STRESS PERIOD      1
 UBDSV1 SAVING     FLOW-JA-FACE ON UNIT   1017 AT TIME STEP     51, STRESS PERIOD      1
 UBDSV06 SAVING              WEL IN MODEL TUTORIAL01B      PACKAGE TUTORIAL01B     CONNECTED TO MODEL TUTORIAL01B      PACKAGE WEL_0            ON UNIT   1017 AT TIME STEP     51, STRESS PERIOD      1
 UBDSV06 SAVING              RCH IN MODEL TUTORIAL01B      PACKAGE TUTORIAL01B     CONNECTED TO MODEL TUTORIAL01B      PACKAGE RCHA             ON UNIT   1017 AT TIME STEP     51, STRESS PERIOD      1
 UBDSV06 SAVING              CHD IN MODEL TUTORIAL01B      PACKAGE TUTORIAL01B     CONNECTED TO MODEL TUTORIAL01B      PACKAGE CHD_0            ON UNIT   1017 AT TIME STEP     51, STRESS PERIOD      1

 HEAD WILL BE SAVED ON UNIT 1018 AT END OF TIME STEP   51, STRESS PERIOD    1

end timestep


start timestep kper="1" kstp="52" mode="normal"


 UBDSV1 SAVING           STO-SS ON UNIT   1017 AT TIME STEP     52, STRESS PERIOD      1
 UBDSV1 SAVING           STO-SY ON UNIT   1017 AT TIME STEP     52, STRESS PERIOD      1
 UBDSV1 SAVING     FLOW-JA-FACE ON UNIT   1017 AT TIME STEP     52, STRESS PERIOD      1
 UBDSV06 SAVING              WEL IN MODEL TUTORIAL01B      PACKAGE TUTORIAL01B     CONNECTED TO MODEL TUTORIAL01B      PACKAGE WEL_0            ON UNIT   1017 AT TIME STEP     52, STRESS PERIOD      1
 UBDSV06 SAVING              RCH IN MODEL TUTORIAL01B      PACKAGE TUTORIAL01B     CONNECTED TO MODEL TUTORIAL01B      PACKAGE RCHA             ON UNIT   1017 AT TIME STEP     52, STRESS PERIOD      1
 UBDSV06 SAVING              CHD IN MODEL TUTORIAL01B      PACKAGE TUTORIAL01B     CONNECTED TO MODEL TUTORIAL01B      PACKAGE CHD_0            ON UNIT   1017 AT TIME STEP     52, STRESS PERIOD      1

 HEAD WILL BE SAVED ON UNIT 1018 AT END OF TIME STEP   52, STRESS PERIOD    1

end timestep


start timestep kper="1" kstp="53" mode="normal"


 UBDSV1 SAVING           STO-SS ON UNIT   1017 AT TIME STEP     53, STRESS PERIOD      1
 UBDSV1 SAVING           STO-SY ON UNIT   1017 AT TIME STEP     53, STRESS PERIOD      1
 UBDSV1 SAVING     FLOW-JA-FACE ON UNIT   1017 AT TIME STEP     53, STRESS PERIOD      1
 UBDSV06 SAVING              WEL IN MODEL TUTORIAL01B      PACKAGE TUTORIAL01B     CONNECTED TO MODEL TUTORIAL01B      PACKAGE WEL_0            ON UNIT   1017 AT TIME STEP     53, STRESS PERIOD      1
 UBDSV06 SAVING              RCH IN MODEL TUTORIAL01B      PACKAGE TUTORIAL01B     CONNECTED TO MODEL TUTORIAL01B      PACKAGE RCHA             ON UNIT   1017 AT TIME STEP     53, STRESS PERIOD      1
 UBDSV06 SAVING              CHD IN MODEL TUTORIAL01B      PACKAGE TUTORIAL01B     CONNECTED TO MODEL TUTORIAL01B      PACKAGE CHD_0            ON UNIT   1017 AT TIME STEP     53, STRESS PERIOD      1

 HEAD WILL BE SAVED ON UNIT 1018 AT END OF TIME STEP   53, STRESS PERIOD    1

end timestep


start timestep kper="1" kstp="54" mode="normal"


 UBDSV1 SAVING           STO-SS ON UNIT   1017 AT TIME STEP     54, STRESS PERIOD      1
 UBDSV1 SAVING           STO-SY ON UNIT   1017 AT TIME STEP     54, STRESS PERIOD      1
 UBDSV1 SAVING     FLOW-JA-FACE ON UNIT   1017 AT TIME STEP     54, STRESS PERIOD      1
 UBDSV06 SAVING              WEL IN MODEL TUTORIAL01B      PACKAGE TUTORIAL01B     CONNECTED TO MODEL TUTORIAL01B      PACKAGE WEL_0            ON UNIT   1017 AT TIME STEP     54, STRESS PERIOD      1
 UBDSV06 SAVING              RCH IN MODEL TUTORIAL01B      PACKAGE TUTORIAL01B     CONNECTED TO MODEL TUTORIAL01B      PACKAGE RCHA             ON UNIT   1017 AT TIME STEP     54, STRESS PERIOD      1
 UBDSV06 SAVING              CHD IN MODEL TUTORIAL01B      PACKAGE TUTORIAL01B     CONNECTED TO MODEL TUTORIAL01B      PACKAGE CHD_0            ON UNIT   1017 AT TIME STEP     54, STRESS PERIOD      1

 HEAD WILL BE SAVED ON UNIT 1018 AT END OF TIME STEP   54, STRESS PERIOD    1

end timestep


start timestep kper="1" kstp="55" mode="normal"


 UBDSV1 SAVING           STO-SS ON UNIT   1017 AT TIME STEP     55, STRESS PERIOD      1
 UBDSV1 SAVING           STO-SY ON UNIT   1017 AT TIME STEP     55, STRESS PERIOD      1
 UBDSV1 SAVING     FLOW-JA-FACE ON UNIT   1017 AT TIME STEP     55, STRESS PERIOD      1
 UBDSV06 SAVING              WEL IN MODEL TUTORIAL01B      PACKAGE TUTORIAL01B     CONNECTED TO MODEL TUTORIAL01B      PACKAGE WEL_0            ON UNIT   1017 AT TIME STEP     55, STRESS PERIOD      1
 UBDSV06 SAVING              RCH IN MODEL TUTORIAL01B      PACKAGE TUTORIAL01B     CONNECTED TO MODEL TUTORIAL01B      PACKAGE RCHA             ON UNIT   1017 AT TIME STEP     55, STRESS PERIOD      1
 UBDSV06 SAVING              CHD IN MODEL TUTORIAL01B      PACKAGE TUTORIAL01B     CONNECTED TO MODEL TUTORIAL01B      PACKAGE CHD_0            ON UNIT   1017 AT TIME STEP     55, STRESS PERIOD      1

 HEAD WILL BE SAVED ON UNIT 1018 AT END OF TIME STEP   55, STRESS PERIOD    1

end timestep


start timestep kper="1" kstp="56" mode="normal"


 UBDSV1 SAVING           STO-SS ON UNIT   1017 AT TIME STEP     56, STRESS PERIOD      1
 UBDSV1 SAVING           STO-SY ON UNIT   1017 AT TIME STEP     56, STRESS PERIOD      1
 UBDSV1 SAVING     FLOW-JA-FACE ON UNIT   1017 AT TIME STEP     56, STRESS PERIOD      1
 UBDSV06 SAVING              WEL IN MODEL TUTORIAL01B      PACKAGE TUTORIAL01B     CONNECTED TO MODEL TUTORIAL01B      PACKAGE WEL_0            ON UNIT   1017 AT TIME STEP     56, STRESS PERIOD      1
 UBDSV06 SAVING              RCH IN MODEL TUTORIAL01B      PACKAGE TUTORIAL01B     CONNECTED TO MODEL TUTORIAL01B      PACKAGE RCHA             ON UNIT   1017 AT TIME STEP     56, STRESS PERIOD      1
 UBDSV06 SAVING              CHD IN MODEL TUTORIAL01B      PACKAGE TUTORIAL01B     CONNECTED TO MODEL TUTORIAL01B      PACKAGE CHD_0            ON UNIT   1017 AT TIME STEP     56, STRESS PERIOD      1

 HEAD WILL BE SAVED ON UNIT 1018 AT END OF TIME STEP   56, STRESS PERIOD    1

end timestep


start timestep kper="1" kstp="57" mode="normal"


 UBDSV1 SAVING           STO-SS ON UNIT   1017 AT TIME STEP     57, STRESS PERIOD      1
 UBDSV1 SAVING           STO-SY ON UNIT   1017 AT TIME STEP     57, STRESS PERIOD      1
 UBDSV1 SAVING     FLOW-JA-FACE ON UNIT   1017 AT TIME STEP     57, STRESS PERIOD      1
 UBDSV06 SAVING              WEL IN MODEL TUTORIAL01B      PACKAGE TUTORIAL01B     CONNECTED TO MODEL TUTORIAL01B      PACKAGE WEL_0            ON UNIT   1017 AT TIME STEP     57, STRESS PERIOD      1
 UBDSV06 SAVING              RCH IN MODEL TUTORIAL01B      PACKAGE TUTORIAL01B     CONNECTED TO MODEL TUTORIAL01B      PACKAGE RCHA             ON UNIT   1017 AT TIME STEP     57, STRESS PERIOD      1
 UBDSV06 SAVING              CHD IN MODEL TUTORIAL01B      PACKAGE TUTORIAL01B     CONNECTED TO MODEL TUTORIAL01B      PACKAGE CHD_0            ON UNIT   1017 AT TIME STEP     57, STRESS PERIOD      1

 HEAD WILL BE SAVED ON UNIT 1018 AT END OF TIME STEP   57, STRESS PERIOD    1

end timestep


start timestep kper="1" kstp="58" mode="normal"


 UBDSV1 SAVING           STO-SS ON UNIT   1017 AT TIME STEP     58, STRESS PERIOD      1
 UBDSV1 SAVING           STO-SY ON UNIT   1017 AT TIME STEP     58, STRESS PERIOD      1
 UBDSV1 SAVING     FLOW-JA-FACE ON UNIT   1017 AT TIME STEP     58, STRESS PERIOD      1
 UBDSV06 SAVING              WEL IN MODEL TUTORIAL01B      PACKAGE TUTORIAL01B     CONNECTED TO MODEL TUTORIAL01B      PACKAGE WEL_0            ON UNIT   1017 AT TIME STEP     58, STRESS PERIOD      1
 UBDSV06 SAVING              RCH IN MODEL TUTORIAL01B      PACKAGE TUTORIAL01B     CONNECTED TO MODEL TUTORIAL01B      PACKAGE RCHA             ON UNIT   1017 AT TIME STEP     58, STRESS PERIOD      1
 UBDSV06 SAVING              CHD IN MODEL TUTORIAL01B      PACKAGE TUTORIAL01B     CONNECTED TO MODEL TUTORIAL01B      PACKAGE CHD_0            ON UNIT   1017 AT TIME STEP     58, STRESS PERIOD      1

 HEAD WILL BE SAVED ON UNIT 1018 AT END OF TIME STEP   58, STRESS PERIOD    1

end timestep


start timestep kper="1" kstp="59" mode="normal"


 UBDSV1 SAVING           STO-SS ON UNIT   1017 AT TIME STEP     59, STRESS PERIOD      1
 UBDSV1 SAVING           STO-SY ON UNIT   1017 AT TIME STEP     59, STRESS PERIOD      1
 UBDSV1 SAVING     FLOW-JA-FACE ON UNIT   1017 AT TIME STEP     59, STRESS PERIOD      1
 UBDSV06 SAVING              WEL IN MODEL TUTORIAL01B      PACKAGE TUTORIAL01B     CONNECTED TO MODEL TUTORIAL01B      PACKAGE WEL_0            ON UNIT   1017 AT TIME STEP     59, STRESS PERIOD      1
 UBDSV06 SAVING              RCH IN MODEL TUTORIAL01B      PACKAGE TUTORIAL01B     CONNECTED TO MODEL TUTORIAL01B      PACKAGE RCHA             ON UNIT   1017 AT TIME STEP     59, STRESS PERIOD      1
 UBDSV06 SAVING              CHD IN MODEL TUTORIAL01B      PACKAGE TUTORIAL01B     CONNECTED TO MODEL TUTORIAL01B      PACKAGE CHD_0            ON UNIT   1017 AT TIME STEP     59, STRESS PERIOD      1

 HEAD WILL BE SAVED ON UNIT 1018 AT END OF TIME STEP   59, STRESS PERIOD    1

end timestep


start timestep kper="1" kstp="60" mode="normal"


 UBDSV1 SAVING           STO-SS ON UNIT   1017 AT TIME STEP     60, STRESS PERIOD      1
 UBDSV1 SAVING           STO-SY ON UNIT   1017 AT TIME STEP     60, STRESS PERIOD      1
 UBDSV1 SAVING     FLOW-JA-FACE ON UNIT   1017 AT TIME STEP     60, STRESS PERIOD      1
 UBDSV06 SAVING              WEL IN MODEL TUTORIAL01B      PACKAGE TUTORIAL01B     CONNECTED TO MODEL TUTORIAL01B      PACKAGE WEL_0            ON UNIT   1017 AT TIME STEP     60, STRESS PERIOD      1
 UBDSV06 SAVING              RCH IN MODEL TUTORIAL01B      PACKAGE TUTORIAL01B     CONNECTED TO MODEL TUTORIAL01B      PACKAGE RCHA             ON UNIT   1017 AT TIME STEP     60, STRESS PERIOD      1
 UBDSV06 SAVING              CHD IN MODEL TUTORIAL01B      PACKAGE TUTORIAL01B     CONNECTED TO MODEL TUTORIAL01B      PACKAGE CHD_0            ON UNIT   1017 AT TIME STEP     60, STRESS PERIOD      1

 HEAD WILL BE SAVED ON UNIT 1018 AT END OF TIME STEP   60, STRESS PERIOD    1

end timestep


start timestep kper="1" kstp="61" mode="normal"


 UBDSV1 SAVING           STO-SS ON UNIT   1017 AT TIME STEP     61, STRESS PERIOD      1
 UBDSV1 SAVING           STO-SY ON UNIT   1017 AT TIME STEP     61, STRESS PERIOD      1
 UBDSV1 SAVING     FLOW-JA-FACE ON UNIT   1017 AT TIME STEP     61, STRESS PERIOD      1
 UBDSV06 SAVING              WEL IN MODEL TUTORIAL01B      PACKAGE TUTORIAL01B     CONNECTED TO MODEL TUTORIAL01B      PACKAGE WEL_0            ON UNIT   1017 AT TIME STEP     61, STRESS PERIOD      1
 UBDSV06 SAVING              RCH IN MODEL TUTORIAL01B      PACKAGE TUTORIAL01B     CONNECTED TO MODEL TUTORIAL01B      PACKAGE RCHA             ON UNIT   1017 AT TIME STEP     61, STRESS PERIOD      1
 UBDSV06 SAVING              CHD IN MODEL TUTORIAL01B      PACKAGE TUTORIAL01B     CONNECTED TO MODEL TUTORIAL01B      PACKAGE CHD_0            ON UNIT   1017 AT TIME STEP     61, STRESS PERIOD      1

 HEAD WILL BE SAVED ON UNIT 1018 AT END OF TIME STEP   61, STRESS PERIOD    1

end timestep


start timestep kper="1" kstp="62" mode="normal"


 UBDSV1 SAVING           STO-SS ON UNIT   1017 AT TIME STEP     62, STRESS PERIOD      1
 UBDSV1 SAVING           STO-SY ON UNIT   1017 AT TIME STEP     62, STRESS PERIOD      1
 UBDSV1 SAVING     FLOW-JA-FACE ON UNIT   1017 AT TIME STEP     62, STRESS PERIOD      1
 UBDSV06 SAVING              WEL IN MODEL TUTORIAL01B      PACKAGE TUTORIAL01B     CONNECTED TO MODEL TUTORIAL01B      PACKAGE WEL_0            ON UNIT   1017 AT TIME STEP     62, STRESS PERIOD      1
 UBDSV06 SAVING              RCH IN MODEL TUTORIAL01B      PACKAGE TUTORIAL01B     CONNECTED TO MODEL TUTORIAL01B      PACKAGE RCHA             ON UNIT   1017 AT TIME STEP     62, STRESS PERIOD      1
 UBDSV06 SAVING              CHD IN MODEL TUTORIAL01B      PACKAGE TUTORIAL01B     CONNECTED TO MODEL TUTORIAL01B      PACKAGE CHD_0            ON UNIT   1017 AT TIME STEP     62, STRESS PERIOD      1

 HEAD WILL BE SAVED ON UNIT 1018 AT END OF TIME STEP   62, STRESS PERIOD    1

end timestep


start timestep kper="1" kstp="63" mode="normal"


 UBDSV1 SAVING           STO-SS ON UNIT   1017 AT TIME STEP     63, STRESS PERIOD      1
 UBDSV1 SAVING           STO-SY ON UNIT   1017 AT TIME STEP     63, STRESS PERIOD      1
 UBDSV1 SAVING     FLOW-JA-FACE ON UNIT   1017 AT TIME STEP     63, STRESS PERIOD      1
 UBDSV06 SAVING              WEL IN MODEL TUTORIAL01B      PACKAGE TUTORIAL01B     CONNECTED TO MODEL TUTORIAL01B      PACKAGE WEL_0            ON UNIT   1017 AT TIME STEP     63, STRESS PERIOD      1
 UBDSV06 SAVING              RCH IN MODEL TUTORIAL01B      PACKAGE TUTORIAL01B     CONNECTED TO MODEL TUTORIAL01B      PACKAGE RCHA             ON UNIT   1017 AT TIME STEP     63, STRESS PERIOD      1
 UBDSV06 SAVING              CHD IN MODEL TUTORIAL01B      PACKAGE TUTORIAL01B     CONNECTED TO MODEL TUTORIAL01B      PACKAGE CHD_0            ON UNIT   1017 AT TIME STEP     63, STRESS PERIOD      1

 HEAD WILL BE SAVED ON UNIT 1018 AT END OF TIME STEP   63, STRESS PERIOD    1

end timestep


start timestep kper="1" kstp="64" mode="normal"


 UBDSV1 SAVING           STO-SS ON UNIT   1017 AT TIME STEP     64, STRESS PERIOD      1
 UBDSV1 SAVING           STO-SY ON UNIT   1017 AT TIME STEP     64, STRESS PERIOD      1
 UBDSV1 SAVING     FLOW-JA-FACE ON UNIT   1017 AT TIME STEP     64, STRESS PERIOD      1
 UBDSV06 SAVING              WEL IN MODEL TUTORIAL01B      PACKAGE TUTORIAL01B     CONNECTED TO MODEL TUTORIAL01B      PACKAGE WEL_0            ON UNIT   1017 AT TIME STEP     64, STRESS PERIOD      1
 UBDSV06 SAVING              RCH IN MODEL TUTORIAL01B      PACKAGE TUTORIAL01B     CONNECTED TO MODEL TUTORIAL01B      PACKAGE RCHA             ON UNIT   1017 AT TIME STEP     64, STRESS PERIOD      1
 UBDSV06 SAVING              CHD IN MODEL TUTORIAL01B      PACKAGE TUTORIAL01B     CONNECTED TO MODEL TUTORIAL01B      PACKAGE CHD_0            ON UNIT   1017 AT TIME STEP     64, STRESS PERIOD      1

 HEAD WILL BE SAVED ON UNIT 1018 AT END OF TIME STEP   64, STRESS PERIOD    1

end timestep


start timestep kper="1" kstp="65" mode="normal"


 UBDSV1 SAVING           STO-SS ON UNIT   1017 AT TIME STEP     65, STRESS PERIOD      1
 UBDSV1 SAVING           STO-SY ON UNIT   1017 AT TIME STEP     65, STRESS PERIOD      1
 UBDSV1 SAVING     FLOW-JA-FACE ON UNIT   1017 AT TIME STEP     65, STRESS PERIOD      1
 UBDSV06 SAVING              WEL IN MODEL TUTORIAL01B      PACKAGE TUTORIAL01B     CONNECTED TO MODEL TUTORIAL01B      PACKAGE WEL_0            ON UNIT   1017 AT TIME STEP     65, STRESS PERIOD      1
 UBDSV06 SAVING              RCH IN MODEL TUTORIAL01B      PACKAGE TUTORIAL01B     CONNECTED TO MODEL TUTORIAL01B      PACKAGE RCHA             ON UNIT   1017 AT TIME STEP     65, STRESS PERIOD      1
 UBDSV06 SAVING              CHD IN MODEL TUTORIAL01B      PACKAGE TUTORIAL01B     CONNECTED TO MODEL TUTORIAL01B      PACKAGE CHD_0            ON UNIT   1017 AT TIME STEP     65, STRESS PERIOD      1

 HEAD WILL BE SAVED ON UNIT 1018 AT END OF TIME STEP   65, STRESS PERIOD    1

end timestep


start timestep kper="1" kstp="66" mode="normal"


 UBDSV1 SAVING           STO-SS ON UNIT   1017 AT TIME STEP     66, STRESS PERIOD      1
 UBDSV1 SAVING           STO-SY ON UNIT   1017 AT TIME STEP     66, STRESS PERIOD      1
 UBDSV1 SAVING     FLOW-JA-FACE ON UNIT   1017 AT TIME STEP     66, STRESS PERIOD      1
 UBDSV06 SAVING              WEL IN MODEL TUTORIAL01B      PACKAGE TUTORIAL01B     CONNECTED TO MODEL TUTORIAL01B      PACKAGE WEL_0            ON UNIT   1017 AT TIME STEP     66, STRESS PERIOD      1
 UBDSV06 SAVING              RCH IN MODEL TUTORIAL01B      PACKAGE TUTORIAL01B     CONNECTED TO MODEL TUTORIAL01B      PACKAGE RCHA             ON UNIT   1017 AT TIME STEP     66, STRESS PERIOD      1
 UBDSV06 SAVING              CHD IN MODEL TUTORIAL01B      PACKAGE TUTORIAL01B     CONNECTED TO MODEL TUTORIAL01B      PACKAGE CHD_0            ON UNIT   1017 AT TIME STEP     66, STRESS PERIOD      1

 HEAD WILL BE SAVED ON UNIT 1018 AT END OF TIME STEP   66, STRESS PERIOD    1

end timestep


start timestep kper="1" kstp="67" mode="normal"


 UBDSV1 SAVING           STO-SS ON UNIT   1017 AT TIME STEP     67, STRESS PERIOD      1
 UBDSV1 SAVING           STO-SY ON UNIT   1017 AT TIME STEP     67, STRESS PERIOD      1
 UBDSV1 SAVING     FLOW-JA-FACE ON UNIT   1017 AT TIME STEP     67, STRESS PERIOD      1
 UBDSV06 SAVING              WEL IN MODEL TUTORIAL01B      PACKAGE TUTORIAL01B     CONNECTED TO MODEL TUTORIAL01B      PACKAGE WEL_0            ON UNIT   1017 AT TIME STEP     67, STRESS PERIOD      1
 UBDSV06 SAVING              RCH IN MODEL TUTORIAL01B      PACKAGE TUTORIAL01B     CONNECTED TO MODEL TUTORIAL01B      PACKAGE RCHA             ON UNIT   1017 AT TIME STEP     67, STRESS PERIOD      1
 UBDSV06 SAVING              CHD IN MODEL TUTORIAL01B      PACKAGE TUTORIAL01B     CONNECTED TO MODEL TUTORIAL01B      PACKAGE CHD_0            ON UNIT   1017 AT TIME STEP     67, STRESS PERIOD      1

 HEAD WILL BE SAVED ON UNIT 1018 AT END OF TIME STEP   67, STRESS PERIOD    1

end timestep


start timestep kper="1" kstp="68" mode="normal"


 UBDSV1 SAVING           STO-SS ON UNIT   1017 AT TIME STEP     68, STRESS PERIOD      1
 UBDSV1 SAVING           STO-SY ON UNIT   1017 AT TIME STEP     68, STRESS PERIOD      1
 UBDSV1 SAVING     FLOW-JA-FACE ON UNIT   1017 AT TIME STEP     68, STRESS PERIOD      1
 UBDSV06 SAVING              WEL IN MODEL TUTORIAL01B      PACKAGE TUTORIAL01B     CONNECTED TO MODEL TUTORIAL01B      PACKAGE WEL_0            ON UNIT   1017 AT TIME STEP     68, STRESS PERIOD      1
 UBDSV06 SAVING              RCH IN MODEL TUTORIAL01B      PACKAGE TUTORIAL01B     CONNECTED TO MODEL TUTORIAL01B      PACKAGE RCHA             ON UNIT   1017 AT TIME STEP     68, STRESS PERIOD      1
 UBDSV06 SAVING              CHD IN MODEL TUTORIAL01B      PACKAGE TUTORIAL01B     CONNECTED TO MODEL TUTORIAL01B      PACKAGE CHD_0            ON UNIT   1017 AT TIME STEP     68, STRESS PERIOD      1

 HEAD WILL BE SAVED ON UNIT 1018 AT END OF TIME STEP   68, STRESS PERIOD    1

end timestep


start timestep kper="1" kstp="69" mode="normal"


 UBDSV1 SAVING           STO-SS ON UNIT   1017 AT TIME STEP     69, STRESS PERIOD      1
 UBDSV1 SAVING           STO-SY ON UNIT   1017 AT TIME STEP     69, STRESS PERIOD      1
 UBDSV1 SAVING     FLOW-JA-FACE ON UNIT   1017 AT TIME STEP     69, STRESS PERIOD      1
 UBDSV06 SAVING              WEL IN MODEL TUTORIAL01B      PACKAGE TUTORIAL01B     CONNECTED TO MODEL TUTORIAL01B      PACKAGE WEL_0            ON UNIT   1017 AT TIME STEP     69, STRESS PERIOD      1
 UBDSV06 SAVING              RCH IN MODEL TUTORIAL01B      PACKAGE TUTORIAL01B     CONNECTED TO MODEL TUTORIAL01B      PACKAGE RCHA             ON UNIT   1017 AT TIME STEP     69, STRESS PERIOD      1
 UBDSV06 SAVING              CHD IN MODEL TUTORIAL01B      PACKAGE TUTORIAL01B     CONNECTED TO MODEL TUTORIAL01B      PACKAGE CHD_0            ON UNIT   1017 AT TIME STEP     69, STRESS PERIOD      1

 HEAD WILL BE SAVED ON UNIT 1018 AT END OF TIME STEP   69, STRESS PERIOD    1

end timestep


start timestep kper="1" kstp="70" mode="normal"


 UBDSV1 SAVING           STO-SS ON UNIT   1017 AT TIME STEP     70, STRESS PERIOD      1
 UBDSV1 SAVING           STO-SY ON UNIT   1017 AT TIME STEP     70, STRESS PERIOD      1
 UBDSV1 SAVING     FLOW-JA-FACE ON UNIT   1017 AT TIME STEP     70, STRESS PERIOD      1
 UBDSV06 SAVING              WEL IN MODEL TUTORIAL01B      PACKAGE TUTORIAL01B     CONNECTED TO MODEL TUTORIAL01B      PACKAGE WEL_0            ON UNIT   1017 AT TIME STEP     70, STRESS PERIOD      1
 UBDSV06 SAVING              RCH IN MODEL TUTORIAL01B      PACKAGE TUTORIAL01B     CONNECTED TO MODEL TUTORIAL01B      PACKAGE RCHA             ON UNIT   1017 AT TIME STEP     70, STRESS PERIOD      1
 UBDSV06 SAVING              CHD IN MODEL TUTORIAL01B      PACKAGE TUTORIAL01B     CONNECTED TO MODEL TUTORIAL01B      PACKAGE CHD_0            ON UNIT   1017 AT TIME STEP     70, STRESS PERIOD      1

 HEAD WILL BE SAVED ON UNIT 1018 AT END OF TIME STEP   70, STRESS PERIOD    1

end timestep


start timestep kper="1" kstp="71" mode="normal"


 UBDSV1 SAVING           STO-SS ON UNIT   1017 AT TIME STEP     71, STRESS PERIOD      1
 UBDSV1 SAVING           STO-SY ON UNIT   1017 AT TIME STEP     71, STRESS PERIOD      1
 UBDSV1 SAVING     FLOW-JA-FACE ON UNIT   1017 AT TIME STEP     71, STRESS PERIOD      1
 UBDSV06 SAVING              WEL IN MODEL TUTORIAL01B      PACKAGE TUTORIAL01B     CONNECTED TO MODEL TUTORIAL01B      PACKAGE WEL_0            ON UNIT   1017 AT TIME STEP     71, STRESS PERIOD      1
 UBDSV06 SAVING              RCH IN MODEL TUTORIAL01B      PACKAGE TUTORIAL01B     CONNECTED TO MODEL TUTORIAL01B      PACKAGE RCHA             ON UNIT   1017 AT TIME STEP     71, STRESS PERIOD      1
 UBDSV06 SAVING              CHD IN MODEL TUTORIAL01B      PACKAGE TUTORIAL01B     CONNECTED TO MODEL TUTORIAL01B      PACKAGE CHD_0            ON UNIT   1017 AT TIME STEP     71, STRESS PERIOD      1

 HEAD WILL BE SAVED ON UNIT 1018 AT END OF TIME STEP   71, STRESS PERIOD    1

end timestep


start timestep kper="1" kstp="72" mode="normal"


 UBDSV1 SAVING           STO-SS ON UNIT   1017 AT TIME STEP     72, STRESS PERIOD      1
[...]
      -3.4111E-03 -3.5107E-03 -3.6055E-03 -3.6957E-03 -3.7815E-03 -3.8630E-03 -3.9403E-03 -4.0137E-03 -4.0831E-03 -4.1487E-03
      -4.2106E-03 -4.2689E-03 -4.3236E-03 -4.3750E-03 -4.4229E-03 -4.4676E-03 -4.5090E-03 -4.5472E-03 -4.5823E-03 -4.6143E-03
      -4.6432E-03 -4.6692E-03 -4.6921E-03 -4.7122E-03 -4.7293E-03 -4.7435E-03 -4.7549E-03 -4.7634E-03 -4.7690E-03 -4.7718E-03
      -4.7718E-03 -4.7690E-03 -4.7633E-03 -4.7547E-03 -4.7433E-03 -4.7290E-03 -4.7119E-03 -4.6918E-03 -4.6688E-03 -4.6428E-03
      -4.6138E-03 -4.5818E-03 -4.5467E-03 -4.5084E-03 -4.4670E-03 -4.4223E-03 -4.3743E-03 -4.3230E-03 -4.2682E-03 -4.2099E-03
      -4.1480E-03 -4.0824E-03 -4.0129E-03 -3.9396E-03 -3.8623E-03 -3.7808E-03 -3.6950E-03 -3.6048E-03 -3.5100E-03 -3.4104E-03
      -3.3059E-03 -3.1963E-03 -3.0814E-03 -2.9609E-03 -2.8346E-03 -2.7022E-03 -2.5635E-03 -2.4180E-03 -2.2656E-03 -2.1058E-03
      -1.9382E-03 -1.7624E-03 -1.5780E-03 -1.3845E-03 -1.1813E-03 -9.6783E-04 -7.4361E-04 -5.0799E-04 -2.6033E-04   0.000    
  88    0.000     -2.4801E-04 -4.8339E-04 -7.0685E-04 -9.1905E-04 -1.1207E-03 -1.3123E-03 -1.4945E-03 -1.6679E-03 -1.8330E-03
      -1.9901E-03 -2.1399E-03 -2.2825E-03 -2.4186E-03 -2.5482E-03 -2.6719E-03 -2.7898E-03 -2.9022E-03 -3.0094E-03 -3.1115E-03
      -3.2089E-03 -3.3016E-03 -3.3898E-03 -3.4738E-03 -3.5536E-03 -3.6294E-03 -3.7014E-03 -3.7695E-03 -3.8341E-03 -3.8950E-03
      -3.9526E-03 -4.0068E-03 -4.0576E-03 -4.1053E-03 -4.1499E-03 -4.1913E-03 -4.2298E-03 -4.2653E-03 -4.2978E-03 -4.3276E-03
      -4.3544E-03 -4.3785E-03 -4.3999E-03 -4.4185E-03 -4.4344E-03 -4.4476E-03 -4.4581E-03 -4.4660E-03 -4.4712E-03 -4.4739E-03
      -4.4738E-03 -4.4712E-03 -4.4659E-03 -4.4579E-03 -4.4474E-03 -4.4341E-03 -4.4182E-03 -4.3995E-03 -4.3782E-03 -4.3540E-03
      -4.3271E-03 -4.2974E-03 -4.2648E-03 -4.2292E-03 -4.1908E-03 -4.1493E-03 -4.1047E-03 -4.0570E-03 -4.0061E-03 -3.9519E-03
      -3.8944E-03 -3.8334E-03 -3.7688E-03 -3.7007E-03 -3.6287E-03 -3.5529E-03 -3.4731E-03 -3.3891E-03 -3.3009E-03 -3.2082E-03
      -3.1109E-03 -3.0087E-03 -2.9016E-03 -2.7892E-03 -2.6713E-03 -2.5477E-03 -2.4180E-03 -2.2821E-03 -2.1394E-03 -1.9897E-03
      -1.8326E-03 -1.6676E-03 -1.4942E-03 -1.3120E-03 -1.1204E-03 -9.1887E-04 -7.0671E-04 -4.8330E-04 -2.4796E-04   0.000    
  89    0.000     -2.3492E-04 -4.5729E-04 -6.6785E-04 -8.6734E-04 -1.0565E-03 -1.2359E-03 -1.4062E-03 -1.5680E-03 -1.7218E-03
      -1.8681E-03 -2.0073E-03 -2.1399E-03 -2.2661E-03 -2.3864E-03 -2.5010E-03 -2.6102E-03 -2.7142E-03 -2.8134E-03 -2.9079E-03
      -2.9979E-03 -3.0836E-03 -3.1651E-03 -3.2427E-03 -3.3164E-03 -3.3864E-03 -3.4528E-03 -3.5157E-03 -3.5752E-03 -3.6315E-03
      -3.6846E-03 -3.7345E-03 -3.7815E-03 -3.8254E-03 -3.8665E-03 -3.9047E-03 -3.9402E-03 -3.9729E-03 -4.0029E-03 -4.0303E-03
      -4.0551E-03 -4.0773E-03 -4.0969E-03 -4.1141E-03 -4.1287E-03 -4.1409E-03 -4.1506E-03 -4.1579E-03 -4.1627E-03 -4.1651E-03
      -4.1651E-03 -4.1627E-03 -4.1578E-03 -4.1505E-03 -4.1407E-03 -4.1285E-03 -4.1138E-03 -4.0966E-03 -4.0769E-03 -4.0547E-03
      -4.0299E-03 -4.0025E-03 -3.9724E-03 -3.9397E-03 -3.9042E-03 -3.8659E-03 -3.8248E-03 -3.7809E-03 -3.7339E-03 -3.6839E-03
      -3.6308E-03 -3.5746E-03 -3.5150E-03 -3.4521E-03 -3.3857E-03 -3.3157E-03 -3.2420E-03 -3.1644E-03 -3.0829E-03 -2.9972E-03
      -2.9072E-03 -2.8128E-03 -2.7136E-03 -2.6096E-03 -2.5004E-03 -2.3858E-03 -2.2656E-03 -2.1394E-03 -2.0069E-03 -1.8677E-03
      -1.7215E-03 -1.5677E-03 -1.4059E-03 -1.2356E-03 -1.0563E-03 -8.6717E-04 -6.6772E-04 -4.5720E-04 -2.3488E-04   0.000    
  90    0.000     -2.2107E-04 -4.2965E-04 -6.2659E-04 -8.1267E-04 -9.8865E-04 -1.1552E-03 -1.3131E-03 -1.4628E-03 -1.6049E-03
      -1.7398E-03 -1.8681E-03 -1.9901E-03 -2.1063E-03 -2.2168E-03 -2.3221E-03 -2.4223E-03 -2.5178E-03 -2.6087E-03 -2.6954E-03
      -2.7778E-03 -2.8563E-03 -2.9310E-03 -3.0020E-03 -3.0695E-03 -3.1335E-03 -3.1943E-03 -3.2518E-03 -3.3063E-03 -3.3578E-03
      -3.4063E-03 -3.4520E-03 -3.4949E-03 -3.5351E-03 -3.5726E-03 -3.6075E-03 -3.6399E-03 -3.6698E-03 -3.6973E-03 -3.7223E-03
      -3.7449E-03 -3.7652E-03 -3.7832E-03 -3.7988E-03 -3.8122E-03 -3.8233E-03 -3.8322E-03 -3.8388E-03 -3.8433E-03 -3.8454E-03
      -3.8454E-03 -3.8432E-03 -3.8387E-03 -3.8321E-03 -3.8231E-03 -3.8120E-03 -3.7986E-03 -3.7829E-03 -3.7649E-03 -3.7446E-03
      -3.7219E-03 -3.6968E-03 -3.6694E-03 -3.6395E-03 -3.6070E-03 -3.5721E-03 -3.5345E-03 -3.4943E-03 -3.4514E-03 -3.4057E-03
      -3.3571E-03 -3.3057E-03 -3.2512E-03 -3.1936E-03 -3.1329E-03 -3.0688E-03 -3.0014E-03 -2.9304E-03 -2.8557E-03 -2.7772E-03
      -2.6948E-03 -2.6082E-03 -2.5172E-03 -2.4218E-03 -2.3215E-03 -2.2163E-03 -2.1058E-03 -1.9897E-03 -1.8677E-03 -1.7394E-03
      -1.6045E-03 -1.4625E-03 -1.3128E-03 -1.1550E-03 -9.8844E-04 -8.1250E-04 -6.2646E-04 -4.2957E-04 -2.2103E-04   0.000    
  91    0.000     -2.0636E-04 -4.0034E-04 -5.8284E-04 -7.5475E-04 -9.1688E-04 -1.0700E-03 -1.2147E-03 -1.3518E-03 -1.4817E-03
      -1.6049E-03 -1.7218E-03 -1.8330E-03 -1.9387E-03 -2.0392E-03 -2.1348E-03 -2.2259E-03 -2.3126E-03 -2.3951E-03 -2.4736E-03
      -2.5484E-03 -2.6195E-03 -2.6872E-03 -2.7515E-03 -2.8126E-03 -2.8706E-03 -2.9256E-03 -2.9777E-03 -3.0270E-03 -3.0736E-03
      -3.1175E-03 -3.1588E-03 -3.1976E-03 -3.2340E-03 -3.2679E-03 -3.2995E-03 -3.3288E-03 -3.3559E-03 -3.3807E-03 -3.4033E-03
      -3.4238E-03 -3.4421E-03 -3.4583E-03 -3.4725E-03 -3.4846E-03 -3.4946E-03 -3.5026E-03 -3.5086E-03 -3.5126E-03 -3.5146E-03
      -3.5146E-03 -3.5126E-03 -3.5085E-03 -3.5025E-03 -3.4944E-03 -3.4844E-03 -3.4722E-03 -3.4580E-03 -3.4418E-03 -3.4234E-03
      -3.4029E-03 -3.3803E-03 -3.3554E-03 -3.3284E-03 -3.2991E-03 -3.2674E-03 -3.2335E-03 -3.1971E-03 -3.1583E-03 -3.1169E-03
      -3.0730E-03 -3.0264E-03 -2.9771E-03 -2.9250E-03 -2.8700E-03 -2.8120E-03 -2.7509E-03 -2.6866E-03 -2.6190E-03 -2.5478E-03
      -2.4731E-03 -2.3945E-03 -2.3120E-03 -2.2254E-03 -2.1343E-03 -2.0387E-03 -1.9382E-03 -1.8326E-03 -1.7215E-03 -1.6045E-03
      -1.4813E-03 -1.3515E-03 -1.2145E-03 -1.0698E-03 -9.1669E-04 -7.5459E-04 -5.8272E-04 -4.0026E-04 -2.0632E-04   0.000    
  92    0.000     -1.9071E-04 -3.6915E-04 -5.3635E-04 -6.9327E-04 -8.4079E-04 -9.7973E-04 -1.1108E-03 -1.2346E-03 -1.3518E-03
      -1.4628E-03 -1.5680E-03 -1.6679E-03 -1.7629E-03 -1.8531E-03 -1.9389E-03 -2.0205E-03 -2.0981E-03 -2.1720E-03 -2.2423E-03
      -2.3092E-03 -2.3729E-03 -2.4334E-03 -2.4909E-03 -2.5455E-03 -2.5974E-03 -2.6465E-03 -2.6931E-03 -2.7371E-03 -2.7787E-03
      -2.8179E-03 -2.8548E-03 -2.8895E-03 -2.9219E-03 -2.9523E-03 -2.9805E-03 -3.0066E-03 -3.0307E-03 -3.0529E-03 -3.0731E-03
      -3.0913E-03 -3.1077E-03 -3.1222E-03 -3.1348E-03 -3.1456E-03 -3.1546E-03 -3.1617E-03 -3.1671E-03 -3.1707E-03 -3.1724E-03
      -3.1724E-03 -3.1706E-03 -3.1670E-03 -3.1616E-03 -3.1544E-03 -3.1454E-03 -3.1346E-03 -3.1219E-03 -3.1074E-03 -3.0910E-03
      -3.0727E-03 -3.0525E-03 -3.0303E-03 -3.0062E-03 -2.9800E-03 -2.9518E-03 -2.9215E-03 -2.8890E-03 -2.8543E-03 -2.8174E-03
      -2.7782E-03 -2.7366E-03 -2.6925E-03 -2.6460E-03 -2.5968E-03 -2.5450E-03 -2.4904E-03 -2.4329E-03 -2.3723E-03 -2.3087E-03
      -2.2418E-03 -2.1715E-03 -2.0976E-03 -2.0200E-03 -1.9384E-03 -1.8526E-03 -1.7624E-03 -1.6676E-03 -1.5677E-03 -1.4625E-03
      -1.3515E-03 -1.2344E-03 -1.1106E-03 -9.7952E-04 -8.4061E-04 -6.9312E-04 -5.3624E-04 -3.6908E-04 -1.9068E-04   0.000    
  93    0.000     -1.7400E-04 -3.3588E-04 -4.8680E-04 -6.2784E-04 -7.5995E-04 -8.8400E-04 -1.0007E-03 -1.1108E-03 -1.2148E-03
      -1.3131E-03 -1.4062E-03 -1.4946E-03 -1.5784E-03 -1.6580E-03 -1.7337E-03 -1.8056E-03 -1.8741E-03 -1.9392E-03 -2.0011E-03
      -2.0600E-03 -2.1160E-03 -2.1692E-03 -2.2198E-03 -2.2679E-03 -2.3135E-03 -2.3567E-03 -2.3976E-03 -2.4363E-03 -2.4728E-03
      -2.5073E-03 -2.5397E-03 -2.5702E-03 -2.5987E-03 -2.6253E-03 -2.6501E-03 -2.6731E-03 -2.6942E-03 -2.7137E-03 -2.7314E-03
      -2.7475E-03 -2.7618E-03 -2.7746E-03 -2.7856E-03 -2.7951E-03 -2.8030E-03 -2.8093E-03 -2.8140E-03 -2.8171E-03 -2.8187E-03
      -2.8186E-03 -2.8171E-03 -2.8139E-03 -2.8092E-03 -2.8029E-03 -2.7949E-03 -2.7854E-03 -2.7743E-03 -2.7616E-03 -2.7472E-03
      -2.7311E-03 -2.7134E-03 -2.6939E-03 -2.6727E-03 -2.6497E-03 -2.6249E-03 -2.5982E-03 -2.5697E-03 -2.5393E-03 -2.5068E-03
      -2.4724E-03 -2.4358E-03 -2.3971E-03 -2.3562E-03 -2.3130E-03 -2.2674E-03 -2.2193E-03 -2.1687E-03 -2.1155E-03 -2.0595E-03
      -2.0006E-03 -1.9387E-03 -1.8736E-03 -1.8052E-03 -1.7333E-03 -1.6576E-03 -1.5780E-03 -1.4942E-03 -1.4059E-03 -1.3128E-03
      -1.2145E-03 -1.1106E-03 -1.0005E-03 -8.8382E-04 -7.5979E-04 -6.2771E-04 -4.8670E-04 -3.3582E-04 -1.7397E-04   0.000    
  94    0.000     -1.5608E-04 -3.0023E-04 -4.3380E-04 -5.5799E-04 -6.7384E-04 -7.8226E-04 -8.8401E-04 -9.7974E-04 -1.0700E-03
      -1.1553E-03 -1.2359E-03 -1.3123E-03 -1.3848E-03 -1.4536E-03 -1.5189E-03 -1.5810E-03 -1.6400E-03 -1.6961E-03 -1.7495E-03
      -1.8003E-03 -1.8485E-03 -1.8944E-03 -1.9379E-03 -1.9793E-03 -2.0185E-03 -2.0557E-03 -2.0909E-03 -2.1242E-03 -2.1557E-03
      -2.1853E-03 -2.2132E-03 -2.2394E-03 -2.2639E-03 -2.2868E-03 -2.3082E-03 -2.3279E-03 -2.3461E-03 -2.3629E-03 -2.3781E-03
      -2.3919E-03 -2.4042E-03 -2.4152E-03 -2.4247E-03 -2.4329E-03 -2.4396E-03 -2.4450E-03 -2.4491E-03 -2.4518E-03 -2.4531E-03
      -2.4531E-03 -2.4517E-03 -2.4490E-03 -2.4449E-03 -2.4395E-03 -2.4327E-03 -2.4245E-03 -2.4150E-03 -2.4040E-03 -2.3916E-03
      -2.3778E-03 -2.3626E-03 -2.3458E-03 -2.3276E-03 -2.3078E-03 -2.2865E-03 -2.2636E-03 -2.2390E-03 -2.2128E-03 -2.1849E-03
      -2.1553E-03 -2.1238E-03 -2.0905E-03 -2.0553E-03 -2.0181E-03 -1.9789E-03 -1.9375E-03 -1.8939E-03 -1.8481E-03 -1.7999E-03
      -1.7491E-03 -1.6957E-03 -1.6396E-03 -1.5806E-03 -1.5186E-03 -1.4532E-03 -1.3845E-03 -1.3120E-03 -1.2356E-03 -1.1550E-03
      -1.0698E-03 -9.7952E-04 -8.8382E-04 -7.8209E-04 -6.7370E-04 -5.5788E-04 -4.3372E-04 -3.0018E-04 -1.5605E-04   0.000    
  95    0.000     -1.3674E-04 -2.6183E-04 -3.7685E-04 -4.8314E-04 -5.8183E-04 -6.7384E-04 -7.5996E-04 -8.4080E-04 -9.1689E-04
      -9.8867E-04 -1.0565E-03 -1.1207E-03 -1.1815E-03 -1.2392E-03 -1.2940E-03 -1.3461E-03 -1.3955E-03 -1.4425E-03 -1.4872E-03
      -1.5297E-03 -1.5701E-03 -1.6085E-03 -1.6449E-03 -1.6795E-03 -1.7123E-03 -1.7434E-03 -1.7729E-03 -1.8007E-03 -1.8270E-03
      -1.8518E-03 -1.8751E-03 -1.8970E-03 -1.9175E-03 -1.9366E-03 -1.9544E-03 -1.9709E-03 -1.9862E-03 -2.0001E-03 -2.0129E-03
      -2.0244E-03 -2.0347E-03 -2.0439E-03 -2.0518E-03 -2.0586E-03 -2.0643E-03 -2.0688E-03 -2.0722E-03 -2.0744E-03 -2.0755E-03
      -2.0755E-03 -2.0744E-03 -2.0721E-03 -2.0687E-03 -2.0642E-03 -2.0585E-03 -2.0517E-03 -2.0437E-03 -2.0345E-03 -2.0242E-03
      -2.0126E-03 -1.9999E-03 -1.9859E-03 -1.9707E-03 -1.9541E-03 -1.9363E-03 -1.9172E-03 -1.8967E-03 -1.8748E-03 -1.8514E-03
      -1.8266E-03 -1.8003E-03 -1.7725E-03 -1.7430E-03 -1.7119E-03 -1.6791E-03 -1.6445E-03 -1.6081E-03 -1.5697E-03 -1.5293E-03
      -1.4869E-03 -1.4422E-03 -1.3952E-03 -1.3457E-03 -1.2937E-03 -1.2390E-03 -1.1813E-03 -1.1204E-03 -1.0563E-03 -9.8844E-04
      -9.1669E-04 -8.4061E-04 -7.5979E-04 -6.7370E-04 -5.8171E-04 -4.8304E-04 -3.7678E-04 -2.6179E-04 -1.3671E-04   0.000    
  96    0.000     -1.1570E-04 -2.2018E-04 -3.1530E-04 -4.0255E-04 -4.8314E-04 -5.5799E-04 -6.2784E-04 -6.9327E-04 -7.5476E-04
      -8.1269E-04 -8.6737E-04 -9.1909E-04 -9.6806E-04 -1.0145E-03 -1.0585E-03 -1.1004E-03 -1.1401E-03 -1.1779E-03 -1.2138E-03
      -1.2479E-03 -1.2803E-03 -1.3111E-03 -1.3404E-03 -1.3681E-03 -1.3945E-03 -1.4194E-03 -1.4430E-03 -1.4654E-03 -1.4865E-03
      -1.5063E-03 -1.5250E-03 -1.5426E-03 -1.5590E-03 -1.5744E-03 -1.5887E-03 -1.6019E-03 -1.6141E-03 -1.6253E-03 -1.6355E-03
      -1.6448E-03 -1.6530E-03 -1.6604E-03 -1.6668E-03 -1.6722E-03 -1.6767E-03 -1.6804E-03 -1.6831E-03 -1.6849E-03 -1.6858E-03
      -1.6857E-03 -1.6848E-03 -1.6830E-03 -1.6803E-03 -1.6767E-03 -1.6721E-03 -1.6666E-03 -1.6602E-03 -1.6529E-03 -1.6446E-03
      -1.6353E-03 -1.6251E-03 -1.6139E-03 -1.6017E-03 -1.5884E-03 -1.5741E-03 -1.5588E-03 -1.5423E-03 -1.5248E-03 -1.5061E-03
      -1.4862E-03 -1.4651E-03 -1.4427E-03 -1.4191E-03 -1.3942E-03 -1.3678E-03 -1.3401E-03 -1.3108E-03 -1.2800E-03 -1.2476E-03
      -1.2135E-03 -1.1776E-03 -1.1398E-03 -1.1001E-03 -1.0583E-03 -1.0143E-03 -9.6783E-04 -9.1887E-04 -8.6717E-04 -8.1250E-04
      -7.5459E-04 -6.9312E-04 -6.2771E-04 -5.5788E-04 -4.8304E-04 -4.0247E-04 -3.1524E-04 -2.2014E-04 -1.1568E-04   0.000    
  97    0.000     -9.2553E-05 -1.7456E-04 -2.4826E-04 -3.1530E-04 -3.7685E-04 -4.3381E-04 -4.8681E-04 -5.3636E-04 -5.8285E-04
      -6.2660E-04 -6.6787E-04 -7.0687E-04 -7.4379E-04 -7.7877E-04 -8.1194E-04 -8.4344E-04 -8.7335E-04 -9.0177E-04 -9.2877E-04
      -9.5444E-04 -9.7882E-04 -1.0020E-03 -1.0240E-03 -1.0448E-03 -1.0646E-03 -1.0834E-03 -1.1012E-03 -1.1179E-03 -1.1338E-03
      -1.1487E-03 -1.1628E-03 -1.1760E-03 -1.1883E-03 -1.1999E-03 -1.2106E-03 -1.2205E-03 -1.2297E-03 -1.2381E-03 -1.2458E-03
      -1.2527E-03 -1.2590E-03 -1.2645E-03 -1.2693E-03 -1.2734E-03 -1.2768E-03 -1.2795E-03 -1.2815E-03 -1.2829E-03 -1.2835E-03
      -1.2835E-03 -1.2828E-03 -1.2815E-03 -1.2794E-03 -1.2767E-03 -1.2733E-03 -1.2692E-03 -1.2644E-03 -1.2588E-03 -1.2526E-03
      -1.2457E-03 -1.2380E-03 -1.2295E-03 -1.2204E-03 -1.2104E-03 -1.1997E-03 -1.1881E-03 -1.1758E-03 -1.1626E-03 -1.1485E-03
      -1.1336E-03 -1.1177E-03 -1.1009E-03 -1.0832E-03 -1.0644E-03 -1.0446E-03 -1.0237E-03 -1.0018E-03 -9.7859E-04 -9.5421E-04
      -9.2856E-04 -9.0156E-04 -8.7314E-04 -8.4324E-04 -8.1175E-04 -7.7858E-04 -7.4361E-04 -7.0671E-04 -6.6772E-04 -6.2646E-04
      -5.8272E-04 -5.3624E-04 -4.8670E-04 -4.3372E-04 -3.7678E-04 -3.1524E-04 -2.4822E-04 -1.7453E-04 -9.2537E-05   0.000    
  98    0.000     -6.6612E-05 -1.2392E-04 -1.7456E-04 -2.2018E-04 -2.6184E-04 -3.0023E-04 -3.3589E-04 -3.6916E-04 -4.0034E-04
      -4.2967E-04 -4.5730E-04 -4.8341E-04 -5.0811E-04 -5.3150E-04 -5.5369E-04 -5.7474E-04 -5.9474E-04 -6.1373E-04 -6.3177E-04
      -6.4891E-04 -6.6520E-04 -6.8067E-04 -6.9536E-04 -7.0930E-04 -7.2252E-04 -7.3505E-04 -7.4690E-04 -7.5811E-04 -7.6869E-04
      -7.7867E-04 -7.8805E-04 -7.9685E-04 -8.0510E-04 -8.1280E-04 -8.1996E-04 -8.2660E-04 -8.3272E-04 -8.3834E-04 -8.4346E-04
      -8.4809E-04 -8.5224E-04 -8.5592E-04 -8.5912E-04 -8.6185E-04 -8.6413E-04 -8.6594E-04 -8.6730E-04 -8.6820E-04 -8.6865E-04
      -8.6864E-04 -8.6819E-04 -8.6727E-04 -8.6591E-04 -8.6408E-04 -8.6180E-04 -8.5906E-04 -8.5584E-04 -8.5216E-04 -8.4800E-04
      -8.4336E-04 -8.3823E-04 -8.3261E-04 -8.2648E-04 -8.1983E-04 -8.1267E-04 -8.0496E-04 -7.9671E-04 -7.8790E-04 -7.7852E-04
      -7.6854E-04 -7.5796E-04 -7.4675E-04 -7.3489E-04 -7.2237E-04 -7.0915E-04 -6.9521E-04 -6.8052E-04 -6.6505E-04 -6.4876E-04
      -6.3162E-04 -6.1358E-04 -5.9460E-04 -5.7461E-04 -5.5356E-04 -5.3138E-04 -5.0799E-04 -4.8330E-04 -4.5720E-04 -4.2957E-04
      -4.0026E-04 -3.6908E-04 -3.3582E-04 -3.0018E-04 -2.6179E-04 -2.2014E-04 -1.7453E-04 -1.2390E-04 -6.6601E-05   0.000    
  99    0.000     -3.6639E-05 -6.6612E-05 -9.2553E-05 -1.1570E-04 -1.3674E-04 -1.5608E-04 -1.7400E-04 -1.9072E-04 -2.0637E-04
      -2.2108E-04 -2.3493E-04 -2.4802E-04 -2.6039E-04 -2.7211E-04 -2.8323E-04 -2.9377E-04 -3.0378E-04 -3.1329E-04 -3.2233E-04
      -3.3091E-04 -3.3906E-04 -3.4681E-04 -3.5416E-04 -3.6114E-04 -3.6775E-04 -3.7402E-04 -3.7996E-04 -3.8557E-04 -3.9086E-04
      -3.9585E-04 -4.0055E-04 -4.0495E-04 -4.0908E-04 -4.1293E-04 -4.1652E-04 -4.1984E-04 -4.2290E-04 -4.2571E-04 -4.2827E-04
      -4.3059E-04 -4.3267E-04 -4.3451E-04 -4.3611E-04 -4.3748E-04 -4.3862E-04 -4.3952E-04 -4.4020E-04 -4.4065E-04 -4.4088E-04
      -4.4088E-04 -4.4065E-04 -4.4019E-04 -4.3951E-04 -4.3859E-04 -4.3745E-04 -4.3608E-04 -4.3447E-04 -4.3263E-04 -4.3055E-04
      -4.2823E-04 -4.2566E-04 -4.2284E-04 -4.1978E-04 -4.1645E-04 -4.1287E-04 -4.0901E-04 -4.0488E-04 -4.0047E-04 -3.9578E-04
      -3.9079E-04 -3.8549E-04 -3.7988E-04 -3.7394E-04 -3.6768E-04 -3.6106E-04 -3.5408E-04 -3.4673E-04 -3.3899E-04 -3.3083E-04
      -3.2225E-04 -3.1322E-04 -3.0371E-04 -2.9370E-04 -2.8316E-04 -2.7205E-04 -2.6033E-04 -2.4796E-04 -2.3488E-04 -2.2103E-04
      -2.0632E-04 -1.9068E-04 -1.7397E-04 -1.5605E-04 -1.3671E-04 -1.1568E-04 -9.2537E-05 -6.6601E-05 -3.6634E-05   0.000    
 100    0.000       0.000       0.000       0.000       0.000       0.000       0.000       0.000       0.000       0.000    
        0.000       0.000       0.000       0.000       0.000       0.000       0.000       0.000       0.000       0.000    
        0.000       0.000       0.000       0.000       0.000       0.000       0.000       0.000       0.000       0.000    
        0.000       0.000       0.000       0.000       0.000       0.000       0.000       0.000       0.000       0.000    
        0.000       0.000       0.000       0.000       0.000       0.000       0.000       0.000       0.000       0.000    
        0.000       0.000       0.000       0.000       0.000       0.000       0.000       0.000       0.000       0.000    
        0.000       0.000       0.000       0.000       0.000       0.000       0.000       0.000       0.000       0.000    
        0.000       0.000       0.000       0.000       0.000       0.000       0.000       0.000       0.000       0.000    
        0.000       0.000       0.000       0.000       0.000       0.000       0.000       0.000       0.000       0.000    
        0.000       0.000       0.000       0.000       0.000       0.000       0.000       0.000       0.000       0.000    

 HEAD WILL BE SAVED ON UNIT 1018 AT END OF TIME STEP  100, STRESS PERIOD    1


  VOLUME BUDGET FOR ENTIRE MODEL AT END OF TIME STEP  100, STRESS PERIOD   1
  ---------------------------------------------------------------------------------------------------

     CUMULATIVE VOLUME      L**3       RATES FOR THIS TIME STEP      L**3/T          PACKAGE NAME    
     ------------------                 ------------------------                     ----------------

           IN:                                      IN:
           ---                                      ---
              STO-SS =           0.5640                STO-SS =       1.6790E-07     STORAGE         
              STO-SY =        1326.9049                STO-SY =       2.5189E-03     STORAGE         
                 WEL =           0.0000                   WEL =           0.0000     WEL_0           
                 RCH =       43218.0000                   RCH =           0.0000     RCHA            
                 CHD =       51525.1045                   CHD =        3855.7172     CHD_0           

            TOTAL IN =       96070.5735              TOTAL IN =        3855.7197

          OUT:                                     OUT:
          ----                                     ----
              STO-SS =           0.5188                STO-SS =       7.5834E-06     STORAGE         
              STO-SY =         648.4311                STO-SY =           0.1138     STORAGE         
                 WEL =        4500.0000                   WEL =           0.0000     WEL_0           
                 RCH =       49940.8000                   RCH =        3841.6000     RCHA            
                 CHD =       40859.4488                   CHD =           0.0000     CHD_0           

           TOTAL OUT =       95949.1986             TOTAL OUT =        3841.7138

            IN - OUT =         121.3749              IN - OUT =          14.0059

 PERCENT DISCREPANCY =           0.13     PERCENT DISCREPANCY =           0.36




         TIME SUMMARY AT END OF TIME STEP  100 IN STRESS PERIOD    1
                    SECONDS     MINUTES      HOURS       DAYS        YEARS
                    -----------------------------------------------------------
   TIME STEP LENGTH  17280.      288.00      4.8000     0.20000     5.47570E-04
 STRESS PERIOD TIME 1.72800E+06  28800.      480.00      20.000     5.47570E-02
         TOTAL TIME 1.72800E+06  28800.      480.00      20.000     5.47570E-02


end timestep

